176
Properties=species:S:1:pos:R:3 "Pt36 C1 H3"=T pbc="F F F"
Pt       0.00000000       0.00000000      10.33670500
Pt       8.46407000      14.66020000      10.33670500
Pt      16.92814100       0.00000000      10.33670500
Pt      25.39221100      14.66020000      10.33670500
Pt       4.23203500       7.33010000      10.33670500
Pt      21.16017600       7.33010000      10.33670500
Pt       8.46407000       0.00000000      10.33670500
Pt      16.92814100      14.66020000      10.33670500
Pt      12.69610500       7.33010000      10.33670500
Pt       2.82132900       0.00000000      10.33670500
Pt      11.28539900      14.66020000      10.33670500
Pt       7.05336400       7.33010000      10.33670500
Pt      11.28539900       0.00000000      10.33670500
Pt      19.74946900      14.66020000      10.33670500
Pt      15.51743400       7.33010000      10.33670500
Pt       5.64274200       0.00000000      10.33670500
Pt      14.10681200      14.66020000      10.33670500
Pt       9.87477700       7.33010000      10.33670500
Pt      14.10681200       0.00000000      10.33670500
Pt      22.57088300      14.66020000      10.33670500
Pt      18.33884700       7.33010000      10.33670500
Pt       1.41066400       2.44334200      10.33670500
Pt      18.33880500       2.44334200      10.33670500
Pt       5.64269900       9.77344200      10.33670500
Pt      22.57084000       9.77344200      10.33670500
Pt       9.87473500       2.44334200      10.33670500
Pt      14.10677000       9.77344200      10.33670500
Pt       4.23199300       2.44334200      10.33670500
Pt       8.46402800       9.77344200      10.33670500
Pt      12.69606300       2.44334200      10.33670500
Pt      16.92809800       9.77344200      10.33670500
Pt       7.05340600       2.44334200      10.33670500
Pt      11.28544100       9.77344200      10.33670500
Pt      15.51747700       2.44334200      10.33670500
Pt      19.74951200       9.77344200      10.33670500
Pt       2.82137100       4.88675800      10.33670500
Pt      19.74951200       4.88675800      10.33670500
Pt       7.05340600      12.21685800      10.33670500
Pt      23.98154700      12.21685800      10.33670500
Pt      11.28544100       4.88675800      10.33670500
Pt      15.51747600      12.21685800      10.33670500
Pt       5.64270000       4.88675800      10.33670500
Pt       9.87473500      12.21685800      10.33670500
Pt      14.10677000       4.88675800      10.33670500
Pt      18.33880500      12.21685800      10.33670500
Pt       8.46411300       4.88675800      10.33670500
Pt      12.69614800      12.21685800      10.33670500
Pt      16.92818300       4.88675800      10.33670500
Pt      21.16021800      12.21685800      10.33670500
Pt       1.41066400       0.81444700      12.64048200
Pt       5.64269900       8.14454700      12.64048200
Pt       9.87473500       0.81444700      12.64048200
Pt      14.10677000       8.14454700      12.64048200
Pt       4.23199300       0.81444700      12.64048200
Pt       8.46402800       8.14454700      12.64048200
Pt      12.69606300       0.81444700      12.64048200
Pt      16.92809800       8.14454700      12.64048200
Pt       7.05340600       0.81444700      12.64048200
Pt      11.28544100       8.14454700      12.64048200
Pt      15.51747600       0.81444700      12.64048200
Pt      19.74951100       8.14454700      12.64048200
Pt       2.82132900       3.25779000      12.64048200
Pt       7.05336400      10.58789000      12.64048200
Pt      11.28539900       3.25779000      12.64048200
Pt      15.51743400      10.58789000      12.64048200
Pt       5.64265700       3.25779000      12.64048200
Pt       9.87469200      10.58789000      12.64048200
Pt      14.10672800       3.25779000      12.64048200
Pt      18.33876300      10.58789000      12.64048200
Pt       8.46407000       3.25779000      12.64048200
Pt      12.69610500      10.58789000      12.64048200
Pt      16.92814100       3.25779000      12.64048200
Pt      21.16017600      10.58789000      12.64048200
Pt       4.23203500       5.70120500      12.64048200
Pt       8.46407000      13.03130500      12.64048200
Pt      12.69610500       5.70120500      12.64048200
Pt      16.92814100      13.03130500      12.64048200
Pt       7.05336400       5.70120500      12.64048200
Pt      11.28539900      13.03130500      12.64048200
Pt      15.51743400       5.70120500      12.64048200
Pt      19.74946900      13.03130500      12.64048200
Pt       9.87477700       5.70120500      12.64048200
Pt      14.10681200      13.03130500      12.64048200
Pt      18.33884700       5.70120500      12.64048200
Pt      22.57088200      13.03130500      12.64048200
Pt       8.46398600       1.61350200      14.98375300
Pt      12.69602100       8.94360100      14.98375300
Pt      16.92805600       1.61350200      14.98375300
Pt      21.16009100       8.94360100      14.98375300
Pt       2.82132900       1.62904100      14.95493300
Pt       7.05336400       8.95914100      14.95493300
Pt      11.28539900       1.62904100      14.95493300
Pt      15.51743400       8.95914100      14.95493300
Pt       5.64253000       1.62896800      14.95546600
Pt       9.87456500       8.95906800      14.95546600
Pt      14.10660100       1.62896800      14.95546600
Pt      18.33863600       8.95906800      14.95546600
Pt       9.87325300       4.07319000      14.95146400
Pt      14.10528800      11.40329000      14.95146400
Pt      18.33732400       4.07319000      14.95146400
Pt      22.56935900      11.40329000      14.95146400
Pt       4.23186600       4.07231000      14.95546600
Pt       8.46390100      11.40241000      14.95546600
Pt      12.69593600       4.07231000      14.95546600
Pt      16.92797100      11.40241000      14.95546600
Pt       7.05480300       4.07304300      14.95173000
Pt      11.28683800      11.40314300      14.95173000
Pt      15.51887300       4.07304300      14.95173000
Pt      19.75090800      11.40314300      14.95173000
Pt      11.29889900       6.52356900      14.98455300
Pt      15.53093400      13.85366900      14.98455300
Pt      19.76297000       6.52356900      14.98455300
Pt      23.99500500      13.85366900      14.98455300
Pt       5.62907200       6.52356900      14.98402100
Pt       9.86110800      13.85366900      14.98402100
Pt      14.09314300       6.52356900      14.98402100
Pt      18.32517800      13.85366900      14.98402100
Pt       8.46415500       6.51396700      14.95146400
Pt      12.69619000      13.84406700      14.95146400
Pt      16.92822500       6.51396700      14.95146400
Pt      21.16026000      13.84406700      14.95146400
Pt       8.46411300       0.00066000      17.51809400
Pt      16.92818300      14.66086000      17.51809400
Pt      12.69614800       7.33076000      17.51809400
Pt       0.00004200       0.00066000      17.51809400
Pt       8.46411300      14.66086000      17.51809400
Pt      16.92818300       0.00066000      17.51809400
Pt      25.39225300      14.66086000      17.51809400
Pt       4.23207800       7.33076000      17.51809400
Pt      21.16021800       7.33076000      17.51809400
Pt       7.05882300       7.32914700      17.29687000
Pt       2.82678800      -0.00095300      17.29687000
Pt      11.29085800      14.65924700      17.29687000
Pt      15.52289300       7.32914700      17.29687000
Pt      11.29085800      -0.00095300      17.29687000
Pt      19.75492800      14.65924700      17.29687000
Pt       9.86957100       7.32914700      17.29847100
Pt       5.63753600      -0.00095300      17.29847100
Pt      14.10160700      14.65924700      17.29847100
Pt      18.33364200       7.32914700      17.29847100
Pt      14.10160700      -0.00095300      17.29847100
Pt      22.56567700      14.65924700      17.29847100
Pt       9.87617400       2.44876600      17.29740400
Pt      14.10820900       9.77886600      17.29740400
Pt       1.41210300       2.44876600      17.29740400
Pt      18.34024400       2.44876600      17.29740400
Pt       5.64413900       9.77886600      17.29740400
Pt      22.57227900       9.77886600      17.29740400
Pt       4.23178100       2.44356200      17.31261500
Pt       8.46381600       9.77366200      17.31261500
Pt      12.69585200       2.44356200      17.31261500
Pt      16.92788700       9.77366200      17.31261500
Pt       7.05175500       2.44854600      17.29793700
Pt      11.28379100       9.77864600      17.29793700
Pt      15.51582600       2.44854600      17.29793700
Pt      19.74786100       9.77864600      17.29793700
Pt      11.28184400       4.88316600      17.29820400
Pt      15.51387900      12.21326600      17.29820400
Pt       2.81777400       4.88316600      17.29820400
Pt      19.74591400       4.88316600      17.29820400
Pt       7.04980900      12.21326600      17.29820400
Pt      23.97794900      12.21326600      17.29820400
Pt       5.64612700       4.88287300      17.29740400
Pt       9.87816300      12.21297300      17.29740400
Pt      14.11019800       4.88287300      17.29740400
Pt      18.34223300      12.21297300      17.29740400
Pt       8.46381700       4.88683100      17.31635000
Pt      12.69585200      12.21693100      17.31635000
Pt      16.92788700       4.88683100      17.31635000
Pt      21.15992200      12.21693100      17.31635000
H       13.59295800       6.81523400      19.93448400
H       11.80043700       6.81435400      19.93528400
H       12.69627500       8.36686900      19.93421700
O       15.52771700       8.96463800      19.84448400
C       15.52344300       8.96192700      18.66257400
C       12.69707900       7.33222600      19.60384800
