176
Properties=species:S:1:pos:R:3 "Pt36 H3 O1 C2"=T pbc="F F F"
Pt       0.00000000       0.00000000      10.33670500
Pt       8.46407000      14.66020000      10.33670500
Pt      16.92814100       0.00000000      10.33670500
Pt      25.39221100      14.66020000      10.33670500
Pt       4.23203500       7.33010000      10.33670500
Pt      21.16017600       7.33010000      10.33670500
Pt       8.46407000       0.00000000      10.33670500
Pt      16.92814100      14.66020000      10.33670500
Pt      12.69610500       7.33010000      10.33670500
Pt       2.82132900       0.00000000      10.33670500
Pt      11.28539900      14.66020000      10.33670500
Pt       7.05336400       7.33010000      10.33670500
Pt      11.28539900       0.00000000      10.33670500
Pt      19.74946900      14.66020000      10.33670500
Pt      15.51743400       7.33010000      10.33670500
Pt       5.64274200       0.00000000      10.33670500
Pt      14.10681200      14.66020000      10.33670500
Pt       9.87477700       7.33010000      10.33670500
Pt      14.10681200       0.00000000      10.33670500
Pt      22.57088300      14.66020000      10.33670500
Pt      18.33884700       7.33010000      10.33670500
Pt       1.41066400       2.44334200      10.33670500
Pt      18.33880500       2.44334200      10.33670500
Pt       5.64269900       9.77344200      10.33670500
Pt      22.57084000       9.77344200      10.33670500
Pt       9.87473500       2.44334200      10.33670500
Pt      14.10677000       9.77344200      10.33670500
Pt       4.23199300       2.44334200      10.33670500
Pt       8.46402800       9.77344200      10.33670500
Pt      12.69606300       2.44334200      10.33670500
Pt      16.92809800       9.77344200      10.33670500
Pt       7.05340600       2.44334200      10.33670500
Pt      11.28544100       9.77344200      10.33670500
Pt      15.51747700       2.44334200      10.33670500
Pt      19.74951200       9.77344200      10.33670500
Pt       2.82137100       4.88675800      10.33670500
Pt      19.74951200       4.88675800      10.33670500
Pt       7.05340600      12.21685800      10.33670500
Pt      23.98154700      12.21685800      10.33670500
Pt      11.28544100       4.88675800      10.33670500
Pt      15.51747600      12.21685800      10.33670500
Pt       5.64270000       4.88675800      10.33670500
Pt       9.87473500      12.21685800      10.33670500
Pt      14.10677000       4.88675800      10.33670500
Pt      18.33880500      12.21685800      10.33670500
Pt       8.46411300       4.88675800      10.33670500
Pt      12.69614800      12.21685800      10.33670500
Pt      16.92818300       4.88675800      10.33670500
Pt      21.16021800      12.21685800      10.33670500
Pt       1.41066400       0.81444700      12.64048200
Pt       5.64269900       8.14454700      12.64048200
Pt       9.87473500       0.81444700      12.64048200
Pt      14.10677000       8.14454700      12.64048200
Pt       4.23199300       0.81444700      12.64048200
Pt       8.46402800       8.14454700      12.64048200
Pt      12.69606300       0.81444700      12.64048200
Pt      16.92809800       8.14454700      12.64048200
Pt       7.05340600       0.81444700      12.64048200
Pt      11.28544100       8.14454700      12.64048200
Pt      15.51747600       0.81444700      12.64048200
Pt      19.74951100       8.14454700      12.64048200
Pt       2.82132900       3.25779000      12.64048200
Pt       7.05336400      10.58789000      12.64048200
Pt      11.28539900       3.25779000      12.64048200
Pt      15.51743400      10.58789000      12.64048200
Pt       5.64265700       3.25779000      12.64048200
Pt       9.87469200      10.58789000      12.64048200
Pt      14.10672800       3.25779000      12.64048200
Pt      18.33876300      10.58789000      12.64048200
Pt       8.46407000       3.25779000      12.64048200
Pt      12.69610500      10.58789000      12.64048200
Pt      16.92814100       3.25779000      12.64048200
Pt      21.16017600      10.58789000      12.64048200
Pt       4.23203500       5.70120500      12.64048200
Pt       8.46407000      13.03130500      12.64048200
Pt      12.69610500       5.70120500      12.64048200
Pt      16.92814100      13.03130500      12.64048200
Pt       7.05336400       5.70120500      12.64048200
Pt      11.28539900      13.03130500      12.64048200
Pt      15.51743400       5.70120500      12.64048200
Pt      19.74946900      13.03130500      12.64048200
Pt       9.87477700       5.70120500      12.64048200
Pt      14.10681200      13.03130500      12.64048200
Pt      18.33884700       5.70120500      12.64048200
Pt      22.57088200      13.03130500      12.64048200
Pt       8.52484200       1.64751300      14.98375300
Pt      12.75687800       8.97761300      14.98375300
Pt      16.98891300       1.64751300      14.98375300
Pt      21.22094800       8.97761300      14.98375300
Pt       2.84930200       1.64788000      14.98268600
Pt       7.08133800       8.97798000      14.98268600
Pt      11.31337300       1.64788000      14.98268600
Pt      15.54540800       8.97798000      14.98268600
Pt       5.68747400       1.63923000      14.94372500
Pt       9.91951000       8.96933000      14.94372500
Pt      14.15154500       1.63923000      14.94372500
Pt      18.38358000       8.96933000      14.94372500
Pt       9.92031400       4.06380800      14.98935700
Pt      14.15234900      11.39390800      14.98935700
Pt      18.38438400       4.06380800      14.98935700
Pt      22.61641900      11.39390800      14.98935700
Pt       4.27562500       4.08242600      14.95039500
Pt       8.50766000      11.41252600      14.95039500
Pt      12.73969500       4.08242600      14.95039500
Pt      16.97173100      11.41252600      14.95039500
Pt       7.10008600       4.08330500      14.95146400
Pt      11.33212100      11.41340500      14.95146400
Pt      15.56415600       4.08330500      14.95146400
Pt      19.79619100      11.41340500      14.95146400
Pt      11.32962300       6.52826000      14.94265700
Pt      15.56165900      13.85836000      14.94265700
Pt      19.79369400       6.52826000      14.94265700
Pt      24.02572900      13.85836000      14.94265700
Pt       5.68569700       6.52694100      14.94932800
Pt       9.91773200      13.85704100      14.94932800
Pt      14.14976700       6.52694100      14.94932800
Pt      18.38180200      13.85704100      14.94932800
Pt       8.50829500       6.52430200      14.94559300
Pt      12.74033100      13.85440200      14.94559300
Pt      16.97236600       6.52430200      14.94559300
Pt      21.20440100      13.85440200      14.94559300
Pt       0.09314700       0.02089100      17.30247300
Pt       8.55721700      14.68109100      17.30247300
Pt      17.02128800       0.02089100      17.30247300
Pt      25.48535800      14.68109100      17.30247300
Pt       4.32518200       7.35099100      17.30247300
Pt      21.25332300       7.35099100      17.30247300
Pt       8.55721700       0.02089100      17.30247300
Pt      17.02128800      14.68109100      17.30247300
Pt      12.78925300       7.35099100      17.30247300
Pt       2.91891900       0.00865000      17.28993200
Pt      11.38299000      14.66884900      17.28993200
Pt       7.15095400       7.33874900      17.28993200
Pt      11.38299000       0.00865000      17.28993200
Pt      19.84706000      14.66884900      17.28993200
Pt      15.61502500       7.33874900      17.28993200
Pt       5.73800500       0.02147700      17.29927100
Pt      14.20207500      14.68167700      17.29927100
Pt       9.97004000       7.35157700      17.29927100
Pt      14.20207500       0.02147700      17.29927100
Pt      22.66614600      14.68167700      17.29927100
Pt      18.43411100       7.35157700      17.29927100
Pt       1.52272900       2.46973100      17.55145200
Pt      18.45086900       2.46973100      17.55145200
Pt       5.75476400       9.79983100      17.55145200
Pt      22.68290400       9.79983100      17.55145200
Pt       9.98679900       2.46973100      17.55145200
Pt      14.21883400       9.79983100      17.55145200
Pt       4.33682000       2.46394000      17.28779700
Pt       8.56885500       9.79404000      17.28779700
Pt      12.80089100       2.46394000      17.28779700
Pt      17.03292600       9.79404000      17.28779700
Pt       7.14845700       2.46547900      17.28993200
Pt      11.38049300       9.79557900      17.28993200
Pt      15.61252800       2.46547900      17.28993200
Pt      19.84456300       9.79557900      17.28993200
Pt       2.91841200       4.92700000      17.29153300
Pt      19.84655200       4.92700000      17.29153300
Pt       7.15044700      12.25710000      17.29153300
Pt      24.07858700      12.25710000      17.29153300
Pt      11.38248200       4.92700000      17.29153300
Pt      15.61451700      12.25710000      17.29153300
Pt       5.73906300       4.91014100      17.29900400
Pt       9.97109800      12.24024100      17.29900400
Pt      14.20313300       4.91014100      17.29900400
Pt      18.43516800      12.24024100      17.29900400
Pt       8.55789500       4.91314600      17.30167300
Pt      12.78993000      12.24324600      17.30167300
Pt      17.02196500       4.91314600      17.30167300
Pt      21.25400000      12.24324600      17.30167300
H       13.48787700       9.74309500      21.44703000
H       12.53071800       9.09225600      20.07672000
H       12.74498500      10.82780400      20.23523200
O       15.59191800       9.78861500      20.02414900
C       14.48367500       9.81185200      19.56328600
C       13.22638000       9.86396900      20.39801400
