172
"Rh36 C1"
Rh    0.000000    0.000000    9.999932
Rh    8.188299   14.182552    9.999932
Rh   16.376600    0.000000    9.999932
Rh   24.564899   14.182552    9.999932
Rh    4.094150    7.091276    9.999932
Rh   20.470750    7.091276    9.999932
Rh    8.188300    0.000000    9.999932
Rh   16.376599   14.182552    9.999932
Rh   12.282450    7.091276    9.999932
Rh    2.729406    0.000000    9.999932
Rh   10.917705   14.182552    9.999932
Rh    6.823556    7.091276    9.999932
Rh   10.917706    0.000000    9.999932
Rh   19.106005   14.182552    9.999932
Rh   15.011856    7.091276    9.999932
Rh    5.458894    0.000000    9.999932
Rh   13.647193   14.182552    9.999932
Rh    9.553044    7.091276    9.999932
Rh   13.647194    0.000000    9.999932
Rh   21.835494   14.182552    9.999932
Rh   17.741344    7.091276    9.999932
Rh    9.553003    2.363735    9.999932
Rh   13.647153    9.455011    9.999932
Rh    1.364703    2.363735    9.999932
Rh   17.741303    2.363735    9.999932
Rh    5.458853    9.455011    9.999932
Rh   21.835453    9.455011    9.999932
Rh    4.094109    2.363735    9.999932
Rh    8.188259    9.455011    9.999932
Rh   12.282409    2.363735    9.999932
Rh   16.376559    9.455011    9.999932
Rh    6.823597    2.363735    9.999932
Rh   10.917747    9.455011    9.999932
Rh   15.011897    2.363735    9.999932
Rh   19.106047    9.455011    9.999932
Rh   10.917747    4.727541    9.999932
Rh   15.011897   11.818817    9.999932
Rh    2.729447    4.727541    9.999932
Rh   19.106047    4.727541    9.999932
Rh    6.823596   11.818817    9.999932
Rh   23.200197   11.818817    9.999932
Rh    5.458853    4.727541    9.999932
Rh    9.553003   11.818817    9.999932
Rh   13.647153    4.727541    9.999932
Rh   17.741303   11.818817    9.999932
Rh    8.188341    4.727541    9.999932
Rh   12.282491   11.818817    9.999932
Rh   16.376641    4.727541    9.999932
Rh   20.470791   11.818817    9.999932
Rh    1.364703    0.787912   12.228455
Rh    5.458853    7.879188   12.228455
Rh    9.553003    0.787912   12.228455
Rh   13.647153    7.879188   12.228455
Rh    4.094109    0.787912   12.228455
Rh    8.188259    7.879188   12.228455
Rh   12.282409    0.787912   12.228455
Rh   16.376559    7.879188   12.228455
Rh    6.823597    0.787912   12.228455
Rh   10.917747    7.879188   12.228455
Rh   15.011897    0.787912   12.228455
Rh   19.106047    7.879188   12.228455
Rh    2.729406    3.151647   12.228455
Rh    6.823556   10.242923   12.228455
Rh   10.917706    3.151647   12.228455
Rh   15.011856   10.242923   12.228455
Rh    5.458812    3.151647   12.228455
Rh    9.552962   10.242923   12.228455
Rh   13.647112    3.151647   12.228455
Rh   17.741262   10.242923   12.228455
Rh    8.188300    3.151647   12.228455
Rh   12.282450   10.242923   12.228455
Rh   16.376600    3.151647   12.228455
Rh   20.470750   10.242923   12.228455
Rh    4.094150    5.515453   12.228455
Rh    8.188299   12.606729   12.228455
Rh   12.282450    5.515453   12.228455
Rh   16.376599   12.606729   12.228455
Rh    6.823556    5.515453   12.228455
Rh   10.917705   12.606729   12.228455
Rh   15.011856    5.515453   12.228455
Rh   19.106006   12.606729   12.228455
Rh    9.553044    5.515453   12.228455
Rh   13.647193   12.606729   12.228455
Rh   17.741344    5.515453   12.228455
Rh   21.835493   12.606729   12.228455
Rh    8.192722    1.574405   14.435896
Rh   12.286871    8.665681   14.435896
Rh   16.381022    1.574405   14.435896
Rh   20.475171    8.665681   14.435896
Rh    2.725148    1.574263   14.435896
Rh    6.819298    8.665540   14.435896
Rh   10.913448    1.574263   14.435896
Rh   15.007598    8.665540   14.435896
Rh    5.458853    1.583127   14.431093
Rh    9.553003    8.674404   14.431093
Rh   13.647153    1.583127   14.431093
Rh   17.741303    8.674404   14.431093
Rh    9.553003    3.948210   14.416149
Rh   13.647152   11.039486   14.416149
Rh   17.741303    3.948210   14.416149
Rh   21.835453   11.039486   14.416149
Rh    4.097302    3.955018   14.432427
Rh    8.191452   11.046294   14.432427
Rh   12.285603    3.955018   14.432427
Rh   16.379752   11.046294   14.432427
Rh    6.820608    3.955230   14.432427
Rh   10.914758   11.046506   14.432427
Rh   15.008908    3.955230   14.432427
Rh   19.103058   11.046506   14.432427
Rh   10.925812    6.312938   14.435896
Rh   15.019962   13.404214   14.435896
Rh   19.114112    6.312938   14.435896
Rh   23.208262   13.404214   14.435896
Rh    5.459098    6.313009   14.415347
Rh    9.553248   13.404285   14.415347
Rh   13.647399    6.313009   14.415347
Rh   17.741548   13.404285   14.415347
Rh    8.179989    6.312867   14.435896
Rh   12.274138   13.404143   14.435896
Rh   16.368289    6.312867   14.435896
Rh   20.462438   13.404143   14.435896
Rh    8.131637    0.048646   16.723395
Rh   16.319936   14.231199   16.723395
Rh   12.225787    7.139922   16.723395
Rh   -0.056663    0.048646   16.723395
Rh    8.131636   14.231199   16.723395
Rh   16.319937    0.048646   16.723395
Rh   24.508237   14.231199   16.723395
Rh    4.037487    7.139922   16.723395
Rh   20.414087    7.139922   16.723395
Rh    2.785701    0.048433   16.723395
Rh   10.974000   14.230986   16.723395
Rh    6.879850    7.139710   16.723395
Rh   10.974001    0.048433   16.723395
Rh   19.162300   14.230986   16.723395
Rh   15.068150    7.139710   16.723395
Rh    5.458607    0.014963   16.656413
Rh   13.646906   14.197515   16.656413
Rh    9.552757    7.106239   16.656413
Rh   13.646907    0.014963   16.656413
Rh   21.835207   14.197515   16.656413
Rh   17.741057    7.106239   16.656413
Rh    9.553126    2.421529   16.623323
Rh   13.647276    9.512805   16.623323
Rh    1.364826    2.421529   16.623323
Rh   17.741426    2.421529   16.623323
Rh    5.458975    9.512805   16.623323
Rh   21.835576    9.512805   16.623323
Rh    4.091775    2.379974   16.655079
Rh    8.185925    9.471250   16.655079
Rh   12.280075    2.379974   16.655079
Rh   16.374225    9.471250   16.655079
Rh    6.825931    2.380258   16.655079
Rh   10.920080    9.471534   16.655079
Rh   15.014231    2.380258   16.655079
Rh   19.108381    9.471534   16.655079
Rh   10.879548    4.723924   16.623857
Rh   14.973698   11.815201   16.623857
Rh    2.691248    4.723924   16.623857
Rh   19.067848    4.723924   16.623857
Rh    6.785398   11.815201   16.623857
Rh   23.161998   11.815201   16.623857
Rh    5.458812    4.676271   16.714320
Rh    9.552961   11.767547   16.714320
Rh   13.647112    4.676271   16.714320
Rh   17.741261   11.767547   16.714320
Rh    8.226498    4.723995   16.624123
Rh   12.320648   11.815272   16.624123
Rh   16.414799    4.723995   16.624123
Rh   20.508948   11.815272   16.624123
 C   14.997906    8.684135   17.684345
 H   15.039094   10.316269   17.588926
