175
Properties=species:S:1:pos:R:3 "Pt36 O1 C1 H3"=T pbc="F F F"
Pt       0.00000000       0.00000000      10.33670500
Pt       8.46407000      14.66020000      10.33670500
Pt      16.92814100       0.00000000      10.33670500
Pt      25.39221100      14.66020000      10.33670500
Pt       4.23203500       7.33010000      10.33670500
Pt      21.16017600       7.33010000      10.33670500
Pt       8.46407000       0.00000000      10.33670500
Pt      16.92814100      14.66020000      10.33670500
Pt      12.69610500       7.33010000      10.33670500
Pt       2.82132900       0.00000000      10.33670500
Pt      11.28539900      14.66020000      10.33670500
Pt       7.05336400       7.33010000      10.33670500
Pt      11.28539900       0.00000000      10.33670500
Pt      19.74946900      14.66020000      10.33670500
Pt      15.51743400       7.33010000      10.33670500
Pt       5.64274200       0.00000000      10.33670500
Pt      14.10681200      14.66020000      10.33670500
Pt       9.87477700       7.33010000      10.33670500
Pt      14.10681300       0.00000000      10.33670500
Pt      22.57088300      14.66020000      10.33670500
Pt      18.33884800       7.33010000      10.33670500
Pt       1.41066400       2.44334200      10.33670500
Pt      18.33880500       2.44334200      10.33670500
Pt       5.64270000       9.77344200      10.33670500
Pt      22.57084000       9.77344200      10.33670500
Pt       9.87473500       2.44334200      10.33670500
Pt      14.10677000       9.77344200      10.33670500
Pt       4.23199300       2.44334200      10.33670500
Pt       8.46402800       9.77344200      10.33670500
Pt      12.69606300       2.44334200      10.33670500
Pt      16.92809900       9.77344200      10.33670500
Pt       7.05340600       2.44334200      10.33670500
Pt      11.28544200       9.77344200      10.33670500
Pt      15.51747700       2.44334200      10.33670500
Pt      19.74951200       9.77344200      10.33670500
Pt       2.82137100       4.88675800      10.33670500
Pt      19.74951200       4.88675800      10.33670500
Pt       7.05340600      12.21685800      10.33670500
Pt      23.98154700      12.21685800      10.33670500
Pt      11.28544100       4.88675800      10.33670500
Pt      15.51747700      12.21685800      10.33670500
Pt       5.64270000       4.88675800      10.33670500
Pt       9.87473500      12.21685800      10.33670500
Pt      14.10677000       4.88675800      10.33670500
Pt      18.33880600      12.21685800      10.33670500
Pt       8.46411300       4.88675800      10.33670500
Pt      12.69614800      12.21685800      10.33670500
Pt      16.92818400       4.88675800      10.33670500
Pt      21.16021900      12.21685800      10.33670500
Pt       1.41066400       0.81444700      12.64048200
Pt       5.64269900       8.14454700      12.64048200
Pt       9.87473400       0.81444700      12.64048200
Pt      14.10676900       8.14454700      12.64048200
Pt       4.23199300       0.81444700      12.64048200
Pt       8.46402800       8.14454700      12.64048200
Pt      12.69606300       0.81444700      12.64048200
Pt      16.92809800       8.14454700      12.64048200
Pt       7.05340600       0.81444700      12.64048200
Pt      11.28544100       8.14454700      12.64048200
Pt      15.51747700       0.81444700      12.64048200
Pt      19.74951200       8.14454700      12.64048200
Pt       2.82132900       3.25779000      12.64048200
Pt       7.05336400      10.58789000      12.64048200
Pt      11.28539900       3.25779000      12.64048200
Pt      15.51743400      10.58789000      12.64048200
Pt       5.64265700       3.25779000      12.64048200
Pt       9.87469200      10.58789000      12.64048200
Pt      14.10672800       3.25779000      12.64048200
Pt      18.33876300      10.58789000      12.64048200
Pt       8.46407000       3.25779000      12.64048200
Pt      12.69610500      10.58789000      12.64048200
Pt      16.92814100       3.25779000      12.64048200
Pt      21.16017600      10.58789000      12.64048200
Pt       4.23203500       5.70120500      12.64048200
Pt       8.46407100      13.03130500      12.64048200
Pt      12.69610500       5.70120500      12.64048200
Pt      16.92814100      13.03130500      12.64048200
Pt       7.05336400       5.70120500      12.64048200
Pt      11.28539900      13.03130500      12.64048200
Pt      15.51743400       5.70120500      12.64048200
Pt      19.74946900      13.03130500      12.64048200
Pt       9.87477700       5.70120500      12.64048200
Pt      14.10681200      13.03130500      12.64048200
Pt      18.33884800       5.70120500      12.64048200
Pt      22.57088300      13.03130500      12.64048200
Pt      16.92585600       1.63006800      14.95119700
Pt      21.15789100       8.96016800      14.95119700
Pt       8.46178500       1.63006800      14.95119700
Pt      12.69382100       8.96016800      14.95119700
Pt       2.81756200       1.61460100      14.98669000
Pt       7.04959700       8.94470100      14.98669000
Pt      11.28163200       1.61460100      14.98669000
Pt      15.51366700       8.94470100      14.98669000
Pt       5.63812900       1.63146000      14.94959500
Pt       9.87016400       8.96156000      14.94959500
Pt      14.10220000       1.63146000      14.94959500
Pt      18.33423500       8.96156000      14.94959500
Pt      18.33410800       4.07568200      14.94585900
Pt      22.56614300      11.40578200      14.94585900
Pt       9.87003800       4.07568200      14.94585900
Pt      14.10207400      11.40578200      14.94585900
Pt       4.22691400       4.07355600      14.94505900
Pt       8.45895000      11.40365600      14.94505900
Pt      12.69098400       4.07355600      14.94505900
Pt      16.92301900      11.40365600      14.94505900
Pt       7.05057100       4.07685500      14.95199700
Pt      11.28260600      11.40695500      14.95199700
Pt      15.51464000       4.07685500      14.95199700
Pt      19.74667600      11.40695500      14.95199700
Pt      19.74629500       6.51638500      14.94292400
Pt      23.97833000      13.84648500      14.94292400
Pt      11.28222600       6.51638500      14.94292400
Pt      15.51426100      13.84648500      14.94292400
Pt       5.65167100       6.52562200      14.98188600
Pt       9.88370600      13.85572100      14.98188600
Pt      14.11574200       6.52562200      14.98188600
Pt      18.34777700      13.85572100      14.98188600
Pt       8.44367200       6.52701400      14.98802300
Pt      12.67570700      13.85711400      14.98802300
Pt      16.90774300       6.52701400      14.98802300
Pt      21.13977800      13.85711400      14.98802300
Pt      -0.01134200       0.00249200      17.29580200
Pt       8.45272800      14.66269200      17.29580200
Pt      16.91679900       0.00249200      17.29580200
Pt      25.38086900      14.66269200      17.29580200
Pt       4.22069300       7.33259200      17.29580200
Pt      21.14883400       7.33259200      17.29580200
Pt       8.45272700       0.00249200      17.29580200
Pt      16.91679800      14.66269200      17.29580200
Pt      12.68476200       7.33259200      17.29580200
Pt       2.80562800       0.00681700      17.54344600
Pt      11.26969800      14.66701700      17.54344600
Pt       7.03766300       7.33691700      17.54344600
Pt      11.26969800       0.00681700      17.54344600
Pt      19.73376800      14.66701700      17.54344600
Pt      15.50173300       7.33691700      17.54344600
Pt       5.63961000       0.00263900      17.28886400
Pt      14.10368000      14.66283900      17.28886400
Pt       9.87164500       7.33273900      17.28886400
Pt      14.10368100       0.00263900      17.28886400
Pt      22.56775100      14.66283900      17.28886400
Pt      18.33571600       7.33273900      17.28886400
Pt       1.39970400       2.45470400      17.29553500
Pt      18.32784400       2.45470400      17.29553500
Pt       5.63173900       9.78480400      17.29553500
Pt      22.55988000       9.78480400      17.29553500
Pt       9.86377400       2.45470400      17.29553500
Pt      14.09580900       9.78480400      17.29553500
Pt       4.22412100       2.44920600      17.29500200
Pt       8.45615700       9.77930700      17.29500200
Pt      12.68819200       2.44920600      17.29500200
Pt      16.92022700       9.77930700      17.29500200
Pt       7.04494200       2.44788700      17.29633700
Pt      11.27697700       9.77798700      17.29633700
Pt      15.50901200       2.44788700      17.29633700
Pt      19.74104700       9.77798700      17.29633700
Pt       2.81235600       4.89108200      17.29793700
Pt      19.74049700       4.89108200      17.29793700
Pt       7.04439100      12.22118200      17.29793700
Pt      23.97253200      12.22118200      17.29793700
Pt      11.27642700       4.89108200      17.29793700
Pt      15.50846200      12.22118200      17.29793700
Pt       5.63178100       4.88763700      17.29286800
Pt       9.86381600      12.21773700      17.29286800
Pt      14.09585100       4.88763700      17.29286800
Pt      18.32788600      12.21773700      17.29286800
Pt       8.45793400       4.88969000      17.30380800
Pt      12.68996900      12.21978900      17.30380800
Pt      16.92200400       4.88969000      17.30380800
Pt      21.15403900      12.21978900      17.30380800
O       16.61403900       7.73545400      20.23683300
C       15.43270900       7.31881200      19.65588600
H       15.17032300       6.28629300      19.88671700
H       17.28841400       7.04708500      20.12502000
H       14.65371800       8.02521400      19.92594400
