175
Properties=species:S:1:pos:R:3 "Pt36 H3 C1 O1"=T pbc="F F F"
Pt       0.00000000       0.00000000      10.33670500
Pt       8.46407000      14.66020000      10.33670500
Pt      16.92814100       0.00000000      10.33670500
Pt      25.39221100      14.66020000      10.33670500
Pt       4.23203500       7.33010000      10.33670500
Pt      21.16017600       7.33010000      10.33670500
Pt       8.46407000       0.00000000      10.33670500
Pt      16.92814100      14.66020000      10.33670500
Pt      12.69610500       7.33010000      10.33670500
Pt       2.82132900       0.00000000      10.33670500
Pt      11.28539900      14.66020000      10.33670500
Pt       7.05336400       7.33010000      10.33670500
Pt      11.28539900       0.00000000      10.33670500
Pt      19.74946900      14.66020000      10.33670500
Pt      15.51743400       7.33010000      10.33670500
Pt       5.64274200       0.00000000      10.33670500
Pt      14.10681200      14.66020000      10.33670500
Pt       9.87477700       7.33010000      10.33670500
Pt      14.10681200       0.00000000      10.33670500
Pt      22.57088300      14.66020000      10.33670500
Pt      18.33884700       7.33010000      10.33670500
Pt       1.41066400       2.44334200      10.33670500
Pt      18.33880500       2.44334200      10.33670500
Pt       5.64269900       9.77344200      10.33670500
Pt      22.57084000       9.77344200      10.33670500
Pt       9.87473500       2.44334200      10.33670500
Pt      14.10677000       9.77344200      10.33670500
Pt       4.23199300       2.44334200      10.33670500
Pt       8.46402800       9.77344200      10.33670500
Pt      12.69606300       2.44334200      10.33670500
Pt      16.92809800       9.77344200      10.33670500
Pt       7.05340600       2.44334200      10.33670500
Pt      11.28544100       9.77344200      10.33670500
Pt      15.51747700       2.44334200      10.33670500
Pt      19.74951200       9.77344200      10.33670500
Pt       2.82137100       4.88675800      10.33670500
Pt      19.74951200       4.88675800      10.33670500
Pt       7.05340600      12.21685800      10.33670500
Pt      23.98154700      12.21685800      10.33670500
Pt      11.28544100       4.88675800      10.33670500
Pt      15.51747600      12.21685800      10.33670500
Pt       5.64270000       4.88675800      10.33670500
Pt       9.87473500      12.21685800      10.33670500
Pt      14.10677000       4.88675800      10.33670500
Pt      18.33880500      12.21685800      10.33670500
Pt       8.46411300       4.88675800      10.33670500
Pt      12.69614800      12.21685800      10.33670500
Pt      16.92818300       4.88675800      10.33670500
Pt      21.16021800      12.21685800      10.33670500
Pt       1.41066400       0.81444700      12.64048200
Pt       5.64269900       8.14454700      12.64048200
Pt       9.87473500       0.81444700      12.64048200
Pt      14.10677000       8.14454700      12.64048200
Pt       4.23199300       0.81444700      12.64048200
Pt       8.46402800       8.14454700      12.64048200
Pt      12.69606300       0.81444700      12.64048200
Pt      16.92809800       8.14454700      12.64048200
Pt       7.05340600       0.81444700      12.64048200
Pt      11.28544100       8.14454700      12.64048200
Pt      15.51747600       0.81444700      12.64048200
Pt      19.74951100       8.14454700      12.64048200
Pt       2.82132900       3.25779000      12.64048200
Pt       7.05336400      10.58789000      12.64048200
Pt      11.28539900       3.25779000      12.64048200
Pt      15.51743400      10.58789000      12.64048200
Pt       5.64265700       3.25779000      12.64048200
Pt       9.87469200      10.58789000      12.64048200
Pt      14.10672800       3.25779000      12.64048200
Pt      18.33876300      10.58789000      12.64048200
Pt       8.46407000       3.25779000      12.64048200
Pt      12.69610500      10.58789000      12.64048200
Pt      16.92814100       3.25779000      12.64048200
Pt      21.16017600      10.58789000      12.64048200
Pt       4.23203500       5.70120500      12.64048200
Pt       8.46407000      13.03130500      12.64048200
Pt      12.69610500       5.70120500      12.64048200
Pt      16.92814100      13.03130500      12.64048200
Pt       7.05336400       5.70120500      12.64048200
Pt      11.28539900      13.03130500      12.64048200
Pt      15.51743400       5.70120500      12.64048200
Pt      19.74946900      13.03130500      12.64048200
Pt       9.87477700       5.70120500      12.64048200
Pt      14.10681200      13.03130500      12.64048200
Pt      18.33884700       5.70120500      12.64048200
Pt      22.57088200      13.03130500      12.64048200
Pt       8.47702000       1.63431900      14.96800800
Pt      12.70905500       8.96441900      14.96800800
Pt      16.94109100       1.63431900      14.96800800
Pt      21.17312600       8.96441900      14.96800800
Pt       2.81641900       1.62303100      14.98135200
Pt       7.04845500       8.95313100      14.98135200
Pt      11.28049000       1.62303100      14.98135200
Pt      15.51252500       8.95313100      14.98135200
Pt       5.65421100       1.61841300      14.94079000
Pt       9.88624600       8.94851300      14.94079000
Pt      14.11828100       1.61841300      14.94079000
Pt      18.35031600       8.94851300      14.94079000
Pt       9.86914800       4.04672800      15.00323300
Pt      14.10118400      11.37682800      15.00323300
Pt      18.33321900       4.04672800      15.00323300
Pt      22.56525400      11.37682800      15.00323300
Pt       4.23169700       4.08286600      14.94052300
Pt       8.46373200      11.41296500      14.94052300
Pt      12.69576700       4.08286600      14.94052300
Pt      16.92780200      11.41296500      14.94052300
Pt       7.05607200       4.07025800      14.96267200
Pt      11.28810800      11.40035800      14.96267200
Pt      15.52014300       4.07025800      14.96267200
Pt      19.75217800      11.40035800      14.96267200
Pt      11.26699000       6.50187200      14.92531200
Pt      15.49902500      13.83197200      14.92531200
Pt      19.73106000       6.50187200      14.92531200
Pt      23.96309500      13.83197200      14.92531200
Pt       5.65675000       6.51902400      14.96774200
Pt       9.88878500      13.84912400      14.96774200
Pt      14.12082000       6.51902400      14.96774200
Pt      18.35285500      13.84912400      14.96774200
Pt       8.44134400       6.51887800      15.00483500
Pt      12.67337900      13.84897800      15.00483500
Pt      16.90541500       6.51887800      15.00483500
Pt      21.13745000      13.84897800      15.00483500
Pt      12.64214700       7.29191000      17.23896300
Pt       8.41011200      -0.03819000      17.23896300
Pt      16.87418200      14.62201000      17.23896300
Pt       4.17807700       7.29191000      17.23896300
Pt      21.10621700       7.29191000      17.23896300
Pt      -0.05395800      -0.03819000      17.23896300
Pt       8.41011200      14.62201000      17.23896300
Pt      16.87418200      -0.03819000      17.23896300
Pt      25.33825300      14.62201000      17.23896300
Pt       2.81079100       0.02499600      17.50928800
Pt      11.27486100      14.68519500      17.50928800
Pt       7.04282600       7.35509600      17.50928800
Pt      11.27486100       0.02499600      17.50928800
Pt      19.73893100      14.68519500      17.50928800
Pt      15.50689600       7.35509600      17.50928800
Pt       9.87058700       7.32621500      17.31128000
Pt       5.63855200      -0.00388500      17.31128000
Pt      14.10262200      14.65631500      17.31128000
Pt      18.33465800       7.32621500      17.31128000
Pt      14.10262200      -0.00388500      17.31128000
Pt      22.56669300      14.65631500      17.31128000
Pt       1.43512500       2.41079700      17.50875400
Pt      18.36326600       2.41079700      17.50875400
Pt       5.66716100       9.74089600      17.50875400
Pt      22.59530100       9.74089600      17.50875400
Pt       9.89919600       2.41079700      17.50875400
Pt      14.13123100       9.74089600      17.50875400
Pt       4.29771600       2.47449500      17.25230400
Pt       8.52975200       9.80459500      17.25230400
Pt      12.76178700       2.47449500      17.25230400
Pt      16.99382200       9.80459500      17.25230400
Pt       7.07333900       2.44033700      17.31101300
Pt      11.30537400       9.77043700      17.31101300
Pt      15.53740900       2.44033700      17.31101300
Pt      19.76944400       9.77043700      17.31101300
Pt       2.82183600       4.87378300      17.31021300
Pt      19.74997700       4.87378300      17.31021300
Pt       7.05387200      12.20388300      17.31021300
Pt      23.98201200      12.20388300      17.31021300
Pt      11.28590700       4.87378300      17.31021300
Pt      15.51794200      12.20388300      17.31021300
Pt       5.65628400       4.89474800      17.31047900
Pt       9.88832000      12.22484800      17.31047900
Pt      14.12035500       4.89474800      17.31047900
Pt      18.35239000      12.22484800      17.31047900
Pt       8.47016400       4.88272600      17.32916000
Pt      12.70220000      12.21282600      17.32916000
Pt      16.93423500       4.88272600      17.32916000
Pt      21.16627000      12.21282600      17.32916000
O       15.58755900       8.98267100      20.00706500
C       14.74483400       8.50174300      19.07680500
H       13.91412800       8.03225000      19.60118000
H       16.36087900       9.40539800      19.57155900
H       12.63880000       8.87609000      18.20580100
