174
"Pt36 C1 H3"
Pt    0.000000    0.000000   10.336705
Pt    8.464070   14.660200   10.336705
Pt   16.928141    0.000000   10.336705
Pt   25.392211   14.660200   10.336705
Pt    4.232035    7.330100   10.336705
Pt   21.160176    7.330100   10.336705
Pt    8.464070    0.000000   10.336705
Pt   16.928141   14.660200   10.336705
Pt   12.696105    7.330100   10.336705
Pt    2.821329    0.000000   10.336705
Pt   11.285399   14.660200   10.336705
Pt    7.053364    7.330100   10.336705
Pt   11.285399    0.000000   10.336705
Pt   19.749469   14.660200   10.336705
Pt   15.517434    7.330100   10.336705
Pt    5.642742    0.000000   10.336705
Pt   14.106812   14.660200   10.336705
Pt    9.874777    7.330100   10.336705
Pt   14.106813    0.000000   10.336705
Pt   22.570883   14.660200   10.336705
Pt   18.338848    7.330100   10.336705
Pt    1.410664    2.443342   10.336705
Pt   18.338805    2.443342   10.336705
Pt    5.642700    9.773442   10.336705
Pt   22.570840    9.773442   10.336705
Pt    9.874735    2.443342   10.336705
Pt   14.106770    9.773442   10.336705
Pt    4.231993    2.443342   10.336705
Pt    8.464028    9.773442   10.336705
Pt   12.696063    2.443342   10.336705
Pt   16.928099    9.773442   10.336705
Pt    7.053406    2.443342   10.336705
Pt   11.285442    9.773442   10.336705
Pt   15.517477    2.443342   10.336705
Pt   19.749512    9.773442   10.336705
Pt    2.821371    4.886758   10.336705
Pt   19.749512    4.886758   10.336705
Pt    7.053406   12.216858   10.336705
Pt   23.981547   12.216858   10.336705
Pt   11.285441    4.886758   10.336705
Pt   15.517477   12.216858   10.336705
Pt    5.642700    4.886758   10.336705
Pt    9.874735   12.216858   10.336705
Pt   14.106770    4.886758   10.336705
Pt   18.338806   12.216858   10.336705
Pt    8.464113    4.886758   10.336705
Pt   12.696148   12.216858   10.336705
Pt   16.928184    4.886758   10.336705
Pt   21.160219   12.216858   10.336705
Pt    1.410664    0.814447   12.640482
Pt    5.642699    8.144547   12.640482
Pt    9.874734    0.814447   12.640482
Pt   14.106769    8.144547   12.640482
Pt    4.231993    0.814447   12.640482
Pt    8.464028    8.144547   12.640482
Pt   12.696063    0.814447   12.640482
Pt   16.928098    8.144547   12.640482
Pt    7.053406    0.814447   12.640482
Pt   11.285441    8.144547   12.640482
Pt   15.517477    0.814447   12.640482
Pt   19.749512    8.144547   12.640482
Pt    2.821329    3.257790   12.640482
Pt    7.053364   10.587890   12.640482
Pt   11.285399    3.257790   12.640482
Pt   15.517434   10.587890   12.640482
Pt    5.642657    3.257790   12.640482
Pt    9.874692   10.587890   12.640482
Pt   14.106728    3.257790   12.640482
Pt   18.338763   10.587890   12.640482
Pt    8.464070    3.257790   12.640482
Pt   12.696105   10.587890   12.640482
Pt   16.928141    3.257790   12.640482
Pt   21.160176   10.587890   12.640482
Pt    4.232035    5.701205   12.640482
Pt    8.464071   13.031305   12.640482
Pt   12.696105    5.701205   12.640482
Pt   16.928141   13.031305   12.640482
Pt    7.053364    5.701205   12.640482
Pt   11.285399   13.031305   12.640482
Pt   15.517434    5.701205   12.640482
Pt   19.749469   13.031305   12.640482
Pt    9.874777    5.701205   12.640482
Pt   14.106812   13.031305   12.640482
Pt   18.338848    5.701205   12.640482
Pt   22.570883   13.031305   12.640482
Pt   16.914852    1.612769   15.030453
Pt   21.146887    8.942869   15.030453
Pt    8.450783    1.612769   15.030453
Pt   12.682818    8.942869   15.030453
Pt    2.814049    1.655723   14.939723
Pt    7.046085    8.985823   14.939723
Pt   11.278120    1.655723   14.939723
Pt   15.510155    8.985823   14.939723
Pt    5.637621    1.648466   14.953599
Pt    9.869656    8.978566   14.953599
Pt   14.101691    1.648466   14.953599
Pt   18.333726    8.978566   14.953599
Pt   18.314640    4.078614   14.925845
Pt   22.546675   11.408715   14.925845
Pt    9.850571    4.078614   14.925845
Pt   14.082606   11.408715   14.925845
Pt    4.235802    4.096133   14.962672
Pt    8.467837   11.426233   14.962672
Pt   12.699872    4.096133   14.962672
Pt   16.931907   11.426233   14.962672
Pt    7.023359    4.099652   14.994695
Pt   11.255394   11.429751   14.994695
Pt   15.487429    4.099652   14.994695
Pt   19.719464   11.429751   14.994695
Pt   19.755055    6.541381   14.969877
Pt   23.987090   13.871481   14.969877
Pt   11.290985    6.541381   14.969877
Pt   15.523020   13.871481   14.969877
Pt    5.631019    6.536616   14.984021
Pt    9.863054   13.866716   14.984021
Pt   14.095089    6.536616   14.984021
Pt   18.327124   13.866716   14.984021
Pt    8.465721    6.528700   14.937586
Pt   12.697756   13.858800   14.937586
Pt   16.929791    6.528700   14.937586
Pt   21.161827   13.858800   14.937586
Pt    0.005417    0.079458   17.502616
Pt    8.469487   14.739658   17.502616
Pt   16.933557    0.079458   17.502616
Pt   25.397628   14.739658   17.502616
Pt    4.237452    7.409559   17.502616
Pt   21.165593    7.409559   17.502616
Pt    8.469487    0.079458   17.502616
Pt   16.933557   14.739658   17.502616
Pt   12.701522    7.409559   17.502616
Pt    2.875329    0.079458   17.253906
Pt   11.339400   14.739658   17.253906
Pt    7.107365    7.409559   17.253906
Pt   11.339400    0.079458   17.253906
Pt   19.803470   14.739658   17.253906
Pt   15.571435    7.409559   17.253906
Pt    5.633008    0.053803   17.300873
Pt   14.097078   14.714003   17.300873
Pt    9.865043    7.383903   17.300873
Pt   14.097078    0.053803   17.300873
Pt   22.561149   14.714003   17.300873
Pt   18.329113    7.383903   17.300873
Pt    1.417309    2.512758   17.315282
Pt   18.345449    2.512758   17.315282
Pt    5.649344    9.842858   17.315282
Pt   22.577484    9.842858   17.315282
Pt    9.881378    2.512758   17.315282
Pt   14.113413    9.842858   17.315282
Pt    4.230469    2.497438   17.308611
Pt    8.462505    9.827539   17.308611
Pt   12.694540    2.497438   17.308611
Pt   16.926575    9.827539   17.308611
Pt    7.036055    2.517963   17.320353
Pt   11.268090    9.848063   17.320353
Pt   15.500124    2.517963   17.320353
Pt   19.732160    9.848063   17.320353
Pt    2.762545    4.902444   17.238963
Pt   19.690686    4.902444   17.238963
Pt    6.994580   12.232544   17.238963
Pt   23.922721   12.232544   17.238963
Pt   11.226617    4.902444   17.238963
Pt   15.458652   12.232544   17.238963
Pt    5.653364    4.942320   17.446043
Pt    9.885399   12.272420   17.446043
Pt   14.117435    4.942320   17.446043
Pt   18.349470   12.272420   17.446043
Pt    8.464282    4.937628   17.313415
Pt   12.696317   12.267728   17.313415
Pt   16.928352    4.937628   17.313415
Pt   21.160387   12.267728   17.313415
 C   13.409711    6.042934   19.041847
 H   14.220866    6.413911   19.662557
 H   12.652897    5.521252   19.620928
 H   12.626996    7.422093   19.119770
