100
Properties=species:S:1:pos:R:3 "Rh18 C1 H3"=T pbc="F F F"
Rh       2.73371500       2.23204400      -6.31322400
Rh       2.73371500       8.92824400      -6.31322400
Rh       8.20114500       2.23204400      -6.31322400
Rh       8.20114500       8.92824400      -6.31322400
Rh       1.36685800       4.46415600      -5.52399100
Rh       1.36685800      11.16035600      -5.52399100
Rh       6.83428800       4.46415600      -5.52399100
Rh       6.83428800      11.16035600      -5.52399100
Rh       4.10057300       4.46415600      -5.52399100
Rh       4.10057300      11.16035600      -5.52399100
Rh       9.56800300       4.46415600      -5.52399100
Rh       9.56800300      11.16035600      -5.52399100
Rh       5.46743000       2.23204400      -6.31322400
Rh       5.46743000       8.92824400      -6.31322400
Rh      -0.00000000       2.23204400      -6.31322400
Rh      10.93486000       2.23204400      -6.31322400
Rh       0.00000000       8.92824400      -6.31322400
Rh      10.93486000       8.92824400      -6.31322400
Rh       5.46743000       6.69620000      -4.73497100
Rh       5.46743000      -0.00000000      -4.73497100
Rh       5.46743000      13.39240000      -4.73497100
Rh       0.00000000       6.69620000      -4.73497100
Rh      10.93486000       6.69620000      -4.73497100
Rh      -0.00000000      -0.00000000      -4.73497100
Rh       0.00000000      13.39240000      -4.73497100
Rh      10.93486000      -0.00000000      -4.73497100
Rh      10.93486000      13.39240000      -4.73497100
Rh       1.36685800       2.23204400      -3.94573900
Rh       1.36685800       8.92824400      -3.94573900
Rh       6.83428800       2.23204400      -3.94573900
Rh       6.83428800       8.92824400      -3.94573900
Rh       4.10057300       2.23204400      -3.94573900
Rh       4.10057300       8.92824400      -3.94573900
Rh       9.56800300       2.23204400      -3.94573900
Rh       9.56800300       8.92824400      -3.94573900
Rh       2.73371500       6.69620000      -4.73497100
Rh       2.73371500      -0.00000000      -4.73497100
Rh       2.73371500      13.39240000      -4.73497100
Rh       8.20114500       6.69620000      -4.73497100
Rh       8.20114500      -0.00000000      -4.73497100
Rh       8.20114500      13.39240000      -4.73497100
Rh       1.36685800       6.69620000      -2.36748600
Rh       1.36685800      -0.00000000      -2.36748600
Rh       1.36685800      13.39240000      -2.36748600
Rh       6.83428800       6.69620000      -2.36748600
Rh       6.83428800      -0.00000000      -2.36748600
Rh       6.83428800      13.39240000      -2.36748600
Rh       4.10057300       6.69620000      -2.36748600
Rh       4.10057300      -0.00000000      -2.36748600
Rh       4.10057300      13.39240000      -2.36748600
Rh       9.56800300       6.69620000      -2.36748600
Rh       9.56800300      -0.00000000      -2.36748600
Rh       9.56800300      13.39240000      -2.36748600
Rh       2.73371500       4.46415600      -3.15671900
Rh       2.73371500      11.16035600      -3.15671900
Rh       8.20114500       4.46415600      -3.15671900
Rh       8.20114500      11.16035600      -3.15671900
Rh       5.46743000       4.46415600      -3.15671900
Rh       5.46743000      11.16035600      -3.15671900
Rh       0.00000000       4.46415600      -3.15671900
Rh      10.93486000       4.46415600      -3.15671900
Rh       0.00000000      11.16035600      -3.15671900
Rh      10.93486000      11.16035600      -3.15671900
Rh       0.00000000       2.20807200      -1.55248800
Rh      10.93486000       2.20807200      -1.55248800
Rh       0.00000000       8.90427200      -1.55248800
Rh      10.93486000       8.90427200      -1.55248800
Rh       5.46743000       2.20807200      -1.55248800
Rh       5.46743000       8.90427200      -1.55248800
Rh       1.36390500       4.43429000      -0.85385800
Rh       1.36390500      11.13049000      -0.85385800
Rh       6.83133500       4.43429000      -0.85385800
Rh       6.83133500      11.13049000      -0.85385800
Rh       4.10363400       4.43449200      -0.85364300
Rh       4.10363400      11.13069200      -0.85364300
Rh       9.57106400       4.43449200      -0.85364300
Rh       9.57106400      11.13069200      -0.85364300
Rh       2.73377000       2.23445500      -1.56773200
Rh       2.73377000       8.93065500      -1.56773200
Rh       8.20120000       2.23445500      -1.56773200
Rh       8.20120000       8.93065500      -1.56773200
Rh       2.73404300       6.64423700      -0.12023100
Rh       2.73404300      -0.05196200      -0.12023100
Rh       2.73404300      13.34043700      -0.12023100
Rh       8.20147300       6.64423700      -0.12023100
Rh       8.20147300      -0.05196200      -0.12023100
Rh       8.20147300      13.34043700      -0.12023100
Rh       5.46737500       6.60968500      -0.04487200
Rh       5.46737500      -0.08651500      -0.04487200
Rh       5.46737500      13.30588500      -0.04487200
Rh      -0.00005500       6.60968500      -0.04487200
Rh      10.93480500       6.60968500      -0.04487200
Rh      -0.00005500      -0.08651500      -0.04487200
Rh      -0.00005500      13.30588500      -0.04487200
Rh      10.93480500      -0.08651500      -0.04487200
Rh      10.93480500      13.30588500      -0.04487200
C        8.21753800       6.72794000       2.02783200
H        8.21710200       5.71781800       2.43683400
H        9.10998800       7.27193900       2.34301000
H        7.32146100       7.27207300       2.34322500
