165
Properties=species:S:1:pos:R:3 "Rh36 H1 C1 O1"=T pbc="F F F"
Rh       0.00000000       0.00000000       9.99993200
Rh       8.18829900      14.18255200       9.99993200
Rh      16.37660000       0.00000000       9.99993200
Rh      24.56489900      14.18255200       9.99993200
Rh       4.09415000       7.09127600       9.99993200
Rh      20.47075000       7.09127600       9.99993200
Rh       8.18830000       0.00000000       9.99993200
Rh      16.37659900      14.18255200       9.99993200
Rh      12.28245000       7.09127600       9.99993200
Rh       2.72940600       0.00000000       9.99993200
Rh      10.91770500      14.18255200       9.99993200
Rh       6.82355600       7.09127600       9.99993200
Rh      10.91770600       0.00000000       9.99993200
Rh      19.10600500      14.18255200       9.99993200
Rh      15.01185600       7.09127600       9.99993200
Rh       5.45889400       0.00000000       9.99993200
Rh      13.64719300      14.18255200       9.99993200
Rh       9.55304400       7.09127600       9.99993200
Rh      13.64719400       0.00000000       9.99993200
Rh      21.83549400      14.18255200       9.99993200
Rh      17.74134400       7.09127600       9.99993200
Rh       9.55300300       2.36373500       9.99993200
Rh      13.64715300       9.45501100       9.99993200
Rh       1.36470300       2.36373500       9.99993200
Rh      17.74130300       2.36373500       9.99993200
Rh       5.45885300       9.45501100       9.99993200
Rh      21.83545300       9.45501100       9.99993200
Rh       4.09410900       2.36373500       9.99993200
Rh       8.18825900       9.45501100       9.99993200
Rh      12.28240900       2.36373500       9.99993200
Rh      16.37655900       9.45501100       9.99993200
Rh       6.82359700       2.36373500       9.99993200
Rh      10.91774700       9.45501100       9.99993200
Rh      15.01189700       2.36373500       9.99993200
Rh      19.10604700       9.45501100       9.99993200
Rh      10.91774700       4.72754100       9.99993200
Rh      15.01189700      11.81881700       9.99993200
Rh       2.72944700       4.72754100       9.99993200
Rh      19.10604700       4.72754100       9.99993200
Rh       6.82359600      11.81881700       9.99993200
Rh      23.20019700      11.81881700       9.99993200
Rh       5.45885300       4.72754100       9.99993200
Rh       9.55300300      11.81881700       9.99993200
Rh      13.64715300       4.72754100       9.99993200
Rh      17.74130300      11.81881700       9.99993200
Rh       8.18834100       4.72754100       9.99993200
Rh      12.28249100      11.81881700       9.99993200
Rh      16.37664100       4.72754100       9.99993200
Rh      20.47079100      11.81881700       9.99993200
Rh       1.36470300       0.78791200      12.22845500
Rh       5.45885300       7.87918800      12.22845500
Rh       9.55300300       0.78791200      12.22845500
Rh      13.64715300       7.87918800      12.22845500
Rh       4.09410900       0.78791200      12.22845500
Rh       8.18825900       7.87918800      12.22845500
Rh      12.28240900       0.78791200      12.22845500
Rh      16.37655900       7.87918800      12.22845500
Rh       6.82359700       0.78791200      12.22845500
Rh      10.91774700       7.87918800      12.22845500
Rh      15.01189700       0.78791200      12.22845500
Rh      19.10604700       7.87918800      12.22845500
Rh       2.72940600       3.15164700      12.22845500
Rh       6.82355600      10.24292300      12.22845500
Rh      10.91770600       3.15164700      12.22845500
Rh      15.01185600      10.24292300      12.22845500
Rh       5.45881200       3.15164700      12.22845500
Rh       9.55296200      10.24292300      12.22845500
Rh      13.64711200       3.15164700      12.22845500
Rh      17.74126200      10.24292300      12.22845500
Rh       8.18830000       3.15164700      12.22845500
Rh      12.28245000      10.24292300      12.22845500
Rh      16.37660000       3.15164700      12.22845500
Rh      20.47075000      10.24292300      12.22845500
Rh       4.09415000       5.51545300      12.22845500
Rh       8.18829900      12.60672900      12.22845500
Rh      12.28245000       5.51545300      12.22845500
Rh      16.37659900      12.60672900      12.22845500
Rh       6.82355600       5.51545300      12.22845500
Rh      10.91770500      12.60672900      12.22845500
Rh      15.01185600       5.51545300      12.22845500
Rh      19.10600600      12.60672900      12.22845500
Rh       9.55304400       5.51545300      12.22845500
Rh      13.64719300      12.60672900      12.22845500
Rh      17.74134400       5.51545300      12.22845500
Rh      21.83549300      12.60672900      12.22845500
Rh       8.19284400       1.57717100      14.42228600
Rh      12.28699400       8.66844700      14.42228600
Rh      16.38114500       1.57717100      14.42228600
Rh      20.47529400       8.66844700      14.42228600
Rh       2.72044000       1.57064700      14.43242700
Rh       6.81458900       8.66192300      14.43242700
Rh      10.90874000       1.57064700      14.43242700
Rh      15.00288900       8.66192300      14.43242700
Rh       5.44358200       1.58220600      14.44763800
Rh       9.53773100       8.67348200      14.44763800
Rh      13.63188200       1.58220600      14.44763800
Rh      17.72603200       8.67348200      14.44763800
Rh       9.55533700       3.93636800      14.42548900
Rh      13.64948600      11.02764400      14.42548900
Rh      17.74363700       3.93636800      14.42548900
Rh      21.83778600      11.02764400      14.42548900
Rh       4.09193900       3.92317800      14.44763800
Rh       8.18608900      11.01445400      14.44763800
Rh      12.28023900       3.92317800      14.44763800
Rh      16.37438900      11.01445400      14.44763800
Rh       6.82654500       3.94140200      14.42015100
Rh      10.92069400      11.03267800      14.42015100
Rh      15.01484500       3.94140200      14.42015100
Rh      19.10899400      11.03267800      14.42015100
Rh      10.91660100       6.30265500      14.42068600
Rh      15.01075000      13.39393200      14.42068600
Rh      19.10490100       6.30265500      14.42068600
Rh      23.19905000      13.39393200      14.42068600
Rh       5.46229200       6.30662600      14.42228600
Rh       9.55644100      13.39790300      14.42228600
Rh      13.65059200       6.30662600      14.42228600
Rh      17.74474100      13.39790300      14.42228600
Rh       8.18658000       6.30698100      14.42575500
Rh      12.28073000      13.39825700      14.42575500
Rh      16.37488000       6.30698100      14.42575500
Rh      20.46903000      13.39825700      14.42575500
Rh      12.26447600       7.08085200      16.61291500
Rh      16.35862600      14.17212800      16.61291500
Rh      20.45277600       7.08085200      16.61291500
Rh      24.54692600      14.17212800      16.61291500
Rh       2.71556800       0.00638200      16.75248200
Rh      10.90386700      14.18893500      16.75248200
Rh       6.80971700       7.09765800      16.75248200
Rh      10.90386800       0.00638200      16.75248200
Rh      19.09216700      14.18893500      16.75248200
Rh      14.99801800       7.09765800      16.75248200
Rh       9.56921500       7.07744800      16.62385700
Rh      13.66336500      14.16872400      16.62385700
Rh      17.75751500       7.07744800      16.62385700
Rh      21.85166500      14.16872400      16.62385700
Rh       1.36331100       2.34870200      16.75248200
Rh      17.73991100       2.34870200      16.75248200
Rh       5.45746000       9.43997800      16.75248200
Rh      21.83406100       9.43997800      16.75248200
Rh       9.55161100       2.34870200      16.75248200
Rh      13.64576100       9.43997800      16.75248200
Rh       4.14802900       2.39486600      16.70044400
Rh       8.24217900       9.48614200      16.70044400
Rh      12.33632900       2.39486600      16.70044400
Rh      16.43047900       9.48614200      16.70044400
Rh       6.84939000       2.37536500      16.63186200
Rh      10.94354000       9.46664100      16.63186200
Rh      15.03769000       2.37536500      16.63186200
Rh      19.13184000       9.46664100      16.63186200
Rh      10.91381700       4.74853100      16.62385700
Rh      15.00796600      11.83980700      16.62385700
Rh      19.10211700       4.74853100      16.62385700
Rh      23.19626600      11.83980700      16.62385700
Rh       5.48165700       4.74406400      16.63186200
Rh       9.57580700      11.83534000      16.63186200
Rh      13.66995700       4.74406400      16.63186200
Rh      17.76410700      11.83534000      16.63186200
Rh       8.19304900       4.73016500      16.63399700
Rh      12.28719900      11.82144100      16.63399700
Rh      16.38134900       4.73016500      16.63399700
Rh      20.47549900      11.82144100      16.63399700
H       14.03003800       8.10029400      19.11870300
H       15.03699900      10.24199900      17.71800000
C       14.67785500       8.47421700      18.31226000
O       15.74319400       9.08924300      18.67331800
