174
Properties=species:S:1:pos:R:3 "Ir36 H1"=T pbc="F F F"
Ir       0.00000000       0.00000000      10.07758800
Ir       8.25194000      14.29277900      10.07758800
Ir      16.50388000       0.00000000      10.07758800
Ir      24.75581900      14.29277900      10.07758800
Ir       4.12597000       7.14638900      10.07758800
Ir      20.62984900       7.14638900      10.07758800
Ir       8.25194000       0.00000000      10.07758800
Ir      16.50388000      14.29277900      10.07758800
Ir      12.37791000       7.14638900      10.07758800
Ir       2.75061900       0.00000000      10.07758800
Ir      11.00255900      14.29277900      10.07758800
Ir       6.87658900       7.14638900      10.07758800
Ir      11.00255900       0.00000000      10.07758800
Ir      19.25449900      14.29277900      10.07758800
Ir      15.12852900       7.14638900      10.07758800
Ir       5.50132100       0.00000000      10.07758800
Ir      13.75326100      14.29277900      10.07758800
Ir       9.62729100       7.14638900      10.07758800
Ir      13.75326100       0.00000000      10.07758800
Ir      22.00520100      14.29277900      10.07758800
Ir      17.87923100       7.14638900      10.07758800
Ir       1.37531000       2.38210600      10.07758800
Ir      17.87918900       2.38210600      10.07758800
Ir       5.50128000       9.52849600      10.07758800
Ir      22.00515900       9.52849600      10.07758800
Ir       9.62724900       2.38210600      10.07758800
Ir      13.75321900       9.52849600      10.07758800
Ir       4.12592900       2.38210600      10.07758800
Ir       8.25189900       9.52849600      10.07758800
Ir      12.37786900       2.38210600      10.07758800
Ir      16.50383900       9.52849600      10.07758800
Ir       6.87663000       2.38210600      10.07758800
Ir      11.00260000       9.52849600      10.07758800
Ir      15.12857100       2.38210600      10.07758800
Ir      19.25454100       9.52849600      10.07758800
Ir       2.75066000       4.76428400      10.07758800
Ir      19.25454000       4.76428400      10.07758800
Ir       6.87663100      11.91067400      10.07758800
Ir      23.38051000      11.91067400      10.07758800
Ir      11.00260000       4.76428400      10.07758800
Ir      15.12857000      11.91067400      10.07758800
Ir       5.50128000       4.76428400      10.07758800
Ir       9.62725000      11.91067400      10.07758800
Ir      13.75322000       4.76428400      10.07758800
Ir      17.87919000      11.91067400      10.07758800
Ir       8.25198100       4.76428400      10.07758800
Ir      12.37795100      11.91067400      10.07758800
Ir      16.50392200       4.76428400      10.07758800
Ir      20.62989200      11.91067400      10.07758800
Ir       1.37531000       0.79403500      12.32372300
Ir       5.50127900       7.94042500      12.32372300
Ir       9.62724900       0.79403500      12.32372300
Ir      13.75321900       7.94042500      12.32372300
Ir       4.12592900       0.79403500      12.32372300
Ir       8.25189800       7.94042500      12.32372300
Ir      12.37786800       0.79403500      12.32372300
Ir      16.50383800       7.94042500      12.32372300
Ir       6.87663000       0.79403500      12.32372300
Ir      11.00260000       7.94042500      12.32372300
Ir      15.12857000       0.79403500      12.32372300
Ir      19.25454000       7.94042500      12.32372300
Ir       2.75061900       3.17614100      12.32372300
Ir       6.87658900      10.32253100      12.32372300
Ir      11.00255900       3.17614100      12.32372300
Ir      15.12852900      10.32253100      12.32372300
Ir       5.50123800       3.17614100      12.32372300
Ir       9.62720800      10.32253100      12.32372300
Ir      13.75317800       3.17614100      12.32372300
Ir      17.87914800      10.32253100      12.32372300
Ir       8.25194000       3.17614100      12.32372300
Ir      12.37791000      10.32253100      12.32372300
Ir      16.50388000       3.17614100      12.32372300
Ir      20.62985000      10.32253100      12.32372300
Ir       4.12597000       5.55831900      12.32372300
Ir       8.25194000      12.70470900      12.32372300
Ir      12.37790900       5.55831900      12.32372300
Ir      16.50388000      12.70470900      12.32372300
Ir       6.87658900       5.55831900      12.32372300
Ir      11.00255900      12.70470900      12.32372300
Ir      15.12852900       5.55831900      12.32372300
Ir      19.25449900      12.70470900      12.32372300
Ir       9.62729100       5.55831900      12.32372300
Ir      13.75326100      12.70470900      12.32372300
Ir      17.87923100       5.55831900      12.32372300
Ir      22.00520100      12.70470900      12.32372300
Ir      16.50837700       1.58599800      14.54290500
Ir      20.63434700       8.73238800      14.54290500
Ir       8.25643700       1.58599800      14.54290500
Ir      12.38240700       8.73238800      14.54290500
Ir       2.74665800       1.58578400      14.54290500
Ir       6.87262800       8.73217300      14.54290500
Ir      10.99859800       1.58578400      14.54290500
Ir      15.12456800       8.73217300      14.54290500
Ir       5.50169200       1.58728500      14.53543400
Ir       9.62766200       8.73367400      14.53543400
Ir      13.75363200       1.58728500      14.53543400
Ir      17.87960200       8.73367400      14.53543400
Ir      17.87935400       3.96588900      14.53490000
Ir      22.00532400      11.11227800      14.53490000
Ir       9.62741400       3.96588900      14.53490000
Ir      13.75338400      11.11227800      14.53490000
Ir       4.12547500       3.97096300      14.53543400
Ir       8.25144500      11.11735200      14.53543400
Ir      12.37741500       3.97096300      14.53543400
Ir      16.50338500      11.11735200      14.53543400
Ir       6.87786800       3.97089100      14.53543400
Ir      11.00383800      11.11728100      14.53543400
Ir      15.12980800       3.97089100      14.53543400
Ir      19.25577800      11.11728100      14.53543400
Ir      19.25874900       6.35478400      14.53490000
Ir      23.38471800      13.50117300      14.53490000
Ir      11.00680900       6.35478400      14.53490000
Ir      15.13277900      13.50117300      14.53490000
Ir       5.50165100       6.35728500      14.54290500
Ir       9.62762100      13.50367500      14.54290500
Ir      13.75359100       6.35728500      14.54290500
Ir      17.87956100      13.50367500      14.54290500
Ir       8.24835000       6.35464100      14.53463200
Ir      12.37432000      13.50103000      14.53463200
Ir      16.50029000       6.35464100      14.53463200
Ir      20.62626000      13.50103000      14.53463200
Ir      -0.03416400      -0.01972400      16.77543100
Ir       8.21777600      14.27305500      16.77543100
Ir      16.46971600      -0.01972400      16.77543100
Ir      24.72165600      14.27305500      16.77543100
Ir       4.09180700       7.12666600      16.77543100
Ir      20.59568600       7.12666600      16.77543100
Ir       8.21777700      -0.01972400      16.77543100
Ir      16.46971700      14.27305500      16.77543100
Ir      12.34374700       7.12666600      16.77543100
Ir       2.78593700      -0.01986700      16.77569800
Ir      11.03787700      14.27291200      16.77569800
Ir       6.91190700       7.12652300      16.77569800
Ir      11.03787700      -0.01986700      16.77569800
Ir      19.28981700      14.27291200      16.77569800
Ir      15.16384700       7.12652300      16.77569800
Ir       5.50185700       0.00507400      16.74420900
Ir      13.75379700      14.29785300      16.74420900
Ir       9.62782700       7.15146300      16.74420900
Ir      13.75379600       0.00507400      16.74420900
Ir      22.00573600      14.29785300      16.74420900
Ir      17.87976600       7.15146300      16.74420900
Ir       1.37580500       2.42255500      16.77569800
Ir      17.87968500       2.42255500      16.77569800
Ir       5.50177500       9.56894400      16.77569800
Ir      22.00565400       9.56894400      16.77569800
Ir       9.62774500       2.42255500      16.77569800
Ir      13.75371500       9.56894400      16.77569800
Ir       4.13830600       2.38925200      16.74794500
Ir       8.26427600       9.53564200      16.74794500
Ir      12.39024600       2.38925200      16.74794500
Ir      16.51621600       9.53564200      16.74794500
Ir       6.86557300       2.38925200      16.74794500
Ir      10.99154300       9.53564200      16.74794500
Ir      15.11751200       2.38925200      16.74794500
Ir      19.24348200       9.53564200      16.74794500
Ir       2.75528100       4.76213900      16.74420900
Ir      19.25916100       4.76213900      16.74420900
Ir       6.88125100      11.90852800      16.74420900
Ir      23.38513100      11.90852800      16.74420900
Ir      11.00722100       4.76213900      16.74420900
Ir      15.13319100      11.90852800      16.74420900
Ir       5.50194000       4.75113400      16.74794500
Ir       9.62790900      11.89752300      16.74794500
Ir      13.75387900       4.75113400      16.74794500
Ir      17.87984900      11.89752300      16.74794500
Ir       8.24826700       4.76213900      16.74420900
Ir      12.37423700      11.90852800      16.74420900
Ir      16.50020700       4.76213900      16.74420900
Ir      20.62617600      11.90852800      16.74420900
C       13.07727000       5.95786100      18.37954500
H       13.84577200       6.40465500      19.01012800
H       12.29230300       5.50299500      18.98370900
H       13.75573600       7.94178300      17.77801300
