172
Properties=species:S:1:pos:R:3 "Rh36 C1 H1"=T pbc="F F F"
Rh       0.00000000       0.00000000       9.99993200
Rh       8.18829900      14.18255200       9.99993200
Rh      16.37660000       0.00000000       9.99993200
Rh      24.56489900      14.18255200       9.99993200
Rh       4.09415000       7.09127600       9.99993200
Rh      20.47075000       7.09127600       9.99993200
Rh       8.18830000       0.00000000       9.99993200
Rh      16.37659900      14.18255200       9.99993200
Rh      12.28245000       7.09127600       9.99993200
Rh       2.72940600       0.00000000       9.99993200
Rh      10.91770500      14.18255200       9.99993200
Rh       6.82355600       7.09127600       9.99993200
Rh      10.91770600       0.00000000       9.99993200
Rh      19.10600500      14.18255200       9.99993200
Rh      15.01185600       7.09127600       9.99993200
Rh       5.45889400       0.00000000       9.99993200
Rh      13.64719300      14.18255200       9.99993200
Rh       9.55304400       7.09127600       9.99993200
Rh      13.64719400       0.00000000       9.99993200
Rh      21.83549400      14.18255200       9.99993200
Rh      17.74134400       7.09127600       9.99993200
Rh       9.55300300       2.36373500       9.99993200
Rh      13.64715300       9.45501100       9.99993200
Rh       1.36470300       2.36373500       9.99993200
Rh      17.74130300       2.36373500       9.99993200
Rh       5.45885300       9.45501100       9.99993200
Rh      21.83545300       9.45501100       9.99993200
Rh       4.09410900       2.36373500       9.99993200
Rh       8.18825900       9.45501100       9.99993200
Rh      12.28240900       2.36373500       9.99993200
Rh      16.37655900       9.45501100       9.99993200
Rh       6.82359700       2.36373500       9.99993200
Rh      10.91774700       9.45501100       9.99993200
Rh      15.01189700       2.36373500       9.99993200
Rh      19.10604700       9.45501100       9.99993200
Rh      10.91774700       4.72754100       9.99993200
Rh      15.01189700      11.81881700       9.99993200
Rh       2.72944700       4.72754100       9.99993200
Rh      19.10604700       4.72754100       9.99993200
Rh       6.82359600      11.81881700       9.99993200
Rh      23.20019700      11.81881700       9.99993200
Rh       5.45885300       4.72754100       9.99993200
Rh       9.55300300      11.81881700       9.99993200
Rh      13.64715300       4.72754100       9.99993200
Rh      17.74130300      11.81881700       9.99993200
Rh       8.18834100       4.72754100       9.99993200
Rh      12.28249100      11.81881700       9.99993200
Rh      16.37664100       4.72754100       9.99993200
Rh      20.47079100      11.81881700       9.99993200
Rh       1.36470300       0.78791200      12.22845500
Rh       5.45885300       7.87918800      12.22845500
Rh       9.55300300       0.78791200      12.22845500
Rh      13.64715300       7.87918800      12.22845500
Rh       4.09410900       0.78791200      12.22845500
Rh       8.18825900       7.87918800      12.22845500
Rh      12.28240900       0.78791200      12.22845500
Rh      16.37655900       7.87918800      12.22845500
Rh       6.82359700       0.78791200      12.22845500
Rh      10.91774700       7.87918800      12.22845500
Rh      15.01189700       0.78791200      12.22845500
Rh      19.10604700       7.87918800      12.22845500
Rh       2.72940600       3.15164700      12.22845500
Rh       6.82355600      10.24292300      12.22845500
Rh      10.91770600       3.15164700      12.22845500
Rh      15.01185600      10.24292300      12.22845500
Rh       5.45881200       3.15164700      12.22845500
Rh       9.55296200      10.24292300      12.22845500
Rh      13.64711200       3.15164700      12.22845500
Rh      17.74126200      10.24292300      12.22845500
Rh       8.18830000       3.15164700      12.22845500
Rh      12.28245000      10.24292300      12.22845500
Rh      16.37660000       3.15164700      12.22845500
Rh      20.47075000      10.24292300      12.22845500
Rh       4.09415000       5.51545300      12.22845500
Rh       8.18829900      12.60672900      12.22845500
Rh      12.28245000       5.51545300      12.22845500
Rh      16.37659900      12.60672900      12.22845500
Rh       6.82355600       5.51545300      12.22845500
Rh      10.91770500      12.60672900      12.22845500
Rh      15.01185600       5.51545300      12.22845500
Rh      19.10600600      12.60672900      12.22845500
Rh       9.55304400       5.51545300      12.22845500
Rh      13.64719300      12.60672900      12.22845500
Rh      17.74134400       5.51545300      12.22845500
Rh      21.83549300      12.60672900      12.22845500
Rh       8.19542400       1.57369600      14.43029300
Rh      12.28957300       8.66497200      14.43029300
Rh      16.38372400       1.57369600      14.43029300
Rh      20.47787300       8.66497200      14.43029300
Rh       2.73002000       1.57575300      14.41481500
Rh       6.82417000       8.66702900      14.41481500
Rh      10.91832000       1.57575300      14.41481500
Rh      15.01247000       8.66702900      14.41481500
Rh       5.45275300       1.57270300      14.43002500
Rh       9.54690200       8.66397900      14.43002500
Rh      13.64105300       1.57270300      14.43002500
Rh      17.73520200       8.66397900      14.43002500
Rh       9.55889900       3.93544600      14.43055800
Rh      13.65304800      11.02672200      14.43055800
Rh      17.74719900       3.93544600      14.43055800
Rh      21.84134900      11.02672200      14.43055800
Rh       4.08870500       3.93572900      14.42975800
Rh       8.18285400      11.02700600      14.42975800
Rh      12.27700500       3.93572900      14.42975800
Rh      16.37115400      11.02700600      14.42975800
Rh       6.82445700       3.93977100      14.42869100
Rh      10.91860600      11.03104800      14.42869100
Rh      15.01275700       3.93977100      14.42869100
Rh      19.10690600      11.03104800      14.42869100
Rh      10.91795200       6.30371900      14.41748200
Rh      15.01210100      13.39499500      14.41748200
Rh      19.10625200       6.30371900      14.41748200
Rh      23.20040100      13.39499500      14.41748200
Rh       5.46044900       6.31095200      14.43029300
Rh       9.55459900      13.40222800      14.43029300
Rh      13.64875000       6.31095200      14.43029300
Rh      17.74289900      13.40222800      14.43029300
Rh       8.18809500       6.31102300      14.43082600
Rh      12.28224500      13.40229900      14.43082600
Rh      16.37639500       6.31102300      14.43082600
Rh      20.47054500      13.40229900      14.43082600
Rh      12.25653400       7.07659700      16.62332300
Rh       8.16238400      -0.01467900      16.62332300
Rh      16.35068400      14.16787300      16.62332300
Rh       4.06823400       7.07659700      16.62332300
Rh      20.44483400       7.07659700      16.62332300
Rh      -0.02591600      -0.01467900      16.62332300
Rh       8.16238300      14.16787300      16.62332300
Rh      16.35068400      -0.01467900      16.62332300
Rh      24.53898400      14.16787300      16.62332300
Rh       6.82576600       7.05482700      16.72873100
Rh       2.73161700      -0.03644900      16.72873100
Rh      10.91991600      14.14610300      16.72873100
Rh      15.01406700       7.05482700      16.72873100
Rh      10.91991700      -0.03644900      16.72873100
Rh      19.10821600      14.14610300      16.72873100
Rh       9.58137500       7.07638500      16.62279000
Rh       5.48722600      -0.01489200      16.62279000
Rh      13.67552500      14.16766100      16.62279000
Rh      17.76967500       7.07638500      16.62279000
Rh      13.67552600      -0.01489200      16.62279000
Rh      21.86382500      14.16766100      16.62279000
Rh       9.52246100       2.38359100      16.72846400
Rh      13.61661000       9.47486700      16.72846400
Rh       1.33416100       2.38359100      16.72846400
Rh      17.71076100       2.38359100      16.72846400
Rh       5.42831000       9.47486700      16.72846400
Rh      21.80491000       9.47486700      16.72846400
Rh       4.13062900       2.38458300      16.72552900
Rh       8.22477900       9.47586000      16.72552900
Rh      12.31892900       2.38458300      16.72552900
Rh      16.41307900       9.47586000      16.72552900
Rh       6.82531700       2.36742300      16.64867500
Rh      10.91946600       9.45869900      16.64867500
Rh      15.01361700       2.36742300      16.64867500
Rh      19.10776600       9.45869900      16.64867500
Rh      10.91872900       4.75973500      16.62279000
Rh      15.01287900      11.85101200      16.62279000
Rh       2.73042900       4.75973500      16.62279000
Rh      19.10703000       4.75973500      16.62279000
Rh       6.82457900      11.85101200      16.62279000
Rh      23.20117900      11.85101200      16.62279000
Rh       5.46331500       4.72732800      16.64814100
Rh       9.55746500      11.81860400      16.64814100
Rh      13.65161500       4.72732800      16.64814100
Rh      17.74576500      11.81860400      16.64814100
Rh       8.18690800       4.72690300      16.64787300
Rh      12.28105800      11.81817900      16.64787300
Rh      16.37520800       4.72690300      16.64787300
Rh      20.46935800      11.81817900      16.64787300
C       15.01750600       8.67036200      17.87835200
H       15.02393300       8.67412000      18.97326600
