175
Properties=species:S:1:pos:R:3 "Ag36 H3 C1 O1"=T pbc="F F F"
Ag       0.00000000       0.00000000      10.93481200
Ag       8.95197000      15.50526700      10.93481200
Ag      17.90394000       0.00000000      10.93481200
Ag      26.85591000      15.50526700      10.93481200
Ag       4.47598500       7.75263400      10.93481200
Ag      22.37992500       7.75263400      10.93481200
Ag       8.95197000       0.00000000      10.93481200
Ag      17.90394000      15.50526700      10.93481200
Ag      13.42795500       7.75263400      10.93481200
Ag       2.98396000       0.00000000      10.93420600
Ag      11.93593000      15.50526700      10.93420600
Ag       7.45994500       7.75263400      10.93420600
Ag      11.93593100       0.00000000      10.93420600
Ag      20.88790100      15.50526700      10.93420600
Ag      16.41191600       7.75263400      10.93420600
Ag       5.96792000       0.00000000      10.93329600
Ag      14.91989100      15.50526700      10.93329600
Ag      10.44390600       7.75263400      10.93329600
Ag      14.91989100       0.00000000      10.93329600
Ag      23.87186100      15.50526700      10.93329600
Ag      19.39587600       7.75263400      10.93329600
Ag       1.49198000       2.58418500      10.93420600
Ag      19.39592000       2.58418500      10.93420600
Ag       5.96796500      10.33681900      10.93420600
Ag      23.87190600      10.33681900      10.93420600
Ag      10.44395000       2.58418500      10.93420600
Ag      14.91993500      10.33681900      10.93420600
Ag       4.47594000       2.58418500      10.93329600
Ag       8.95192600      10.33681900      10.93329600
Ag      13.42791100       2.58418500      10.93329600
Ag      17.90389600      10.33681900      10.93329600
Ag       7.45990100       2.58418500      10.93268900
Ag      11.93588600      10.33681900      10.93268900
Ag      16.41187100       2.58418500      10.93268900
Ag      20.88785600      10.33681900      10.93268900
Ag       2.98396000       5.16837100      10.93329600
Ag      20.88790000       5.16837100      10.93329600
Ag       7.45994600      12.92100500      10.93329600
Ag      25.36388600      12.92100500      10.93329600
Ag      11.93593000       5.16837100      10.93329600
Ag      16.41191600      12.92100500      10.93329600
Ag       5.96792000       5.16837100      10.93268900
Ag      10.44390600      12.92100500      10.93268900
Ag      14.91989100       5.16837100      10.93268900
Ag      19.39587600      12.92100500      10.93268900
Ag       8.95188100       5.16837100      10.93208300
Ag      13.42786600      12.92100500      10.93208300
Ag      17.90385100       5.16837100      10.93208300
Ag      22.37983700      12.92100500      10.93208300
Ag       1.49251700       0.86170500      13.36210800
Ag       5.96850200       8.61433900      13.36210800
Ag      10.44448800       0.86170500      13.36210800
Ag      14.92047300       8.61433900      13.36210800
Ag       4.47647700       0.86170500      13.36119800
Ag       8.95246300       8.61433900      13.36119800
Ag      13.42844700       0.86170500      13.36119800
Ag      17.90443200       8.61433900      13.36119800
Ag       7.46052700       0.86170500      13.36059100
Ag      11.93651200       8.61433900      13.36059100
Ag      16.41249700       0.86170500      13.36059100
Ag      20.88848200       8.61433900      13.36059100
Ag       2.98449700       3.44589100      13.36119800
Ag       7.46048200      11.19852400      13.36119800
Ag      11.93646800       3.44589100      13.36119800
Ag      16.41245200      11.19852400      13.36119800
Ag       5.96845800       3.44589100      13.36059100
Ag      10.44444200      11.19852400      13.36059100
Ag      14.92042700       3.44589100      13.36059100
Ag      19.39641200      11.19852400      13.36059100
Ag       8.95250700       3.44589100      13.35998500
Ag      13.42849200      11.19852400      13.35998500
Ag      17.90447700       3.44589100      13.35998500
Ag      22.38046200      11.19852400      13.35998500
Ag       4.47652200       6.03015300      13.36059100
Ag       8.95250700      13.78278700      13.36059100
Ag      13.42849200       6.03015300      13.36059100
Ag      17.90447800      13.78278700      13.36059100
Ag       7.46048200       6.03015300      13.35998500
Ag      11.93646700      13.78278700      13.35998500
Ag      16.41245200       6.03015300      13.35998500
Ag      20.88843700      13.78278700      13.35998500
Ag      10.44453200       6.03015300      13.35907400
Ag      14.92051700      13.78278700      13.35907400
Ag      19.39650200       6.03015300      13.35907400
Ag      23.87248700      13.78278700      13.35907400
Ag      17.90622300       1.72054200      15.76270700
Ag      22.38220800       9.47317600      15.76270700
Ag       8.95425200       1.72054200      15.76270700
Ag      13.43023700       9.47317600      15.76270700
Ag       2.98687000       1.69914500      15.80639200
Ag       7.46285400       9.45177800      15.80639200
Ag      11.93883900       1.69914500      15.80639200
Ag      16.41482400       9.45177800      15.80639200
Ag       5.96604100       1.72248000      15.76816800
Ag      10.44202600       9.47511400      15.76816800
Ag      14.91801100       1.72248000      15.76816800
Ag      19.39399600       9.47511400      15.76816800
Ag      19.39914300       4.31193700      15.75815500
Ag      23.87512800      12.06457100      15.75815500
Ag      10.44717200       4.31193700      15.75815500
Ag      14.92315700      12.06457100      15.75815500
Ag       4.47580600       4.30829300      15.76301100
Ag       8.95179100      12.06092700      15.76301100
Ag      13.42777600       4.30829300      15.76301100
Ag      17.90376100      12.06092700      15.76301100
Ag       7.46146700       4.30922400      15.76270700
Ag      11.93745200      12.06185700      15.76270700
Ag      16.41343700       4.30922400      15.76270700
Ag      20.88942200      12.06185700      15.76270700
Ag      20.89085400       6.88992000      15.76392000
Ag      25.36684000      14.64255400      15.76392000
Ag      11.93888300       6.88992000      15.76392000
Ag      16.41486800      14.64255400      15.76392000
Ag       5.98815200       6.90341000      15.79547000
Ag      10.46413700      14.65604400      15.79547000
Ag      14.94012200       6.90341000      15.79547000
Ag      19.41610700      14.65604400      15.79547000
Ag       8.93599100       6.90209200      15.79152700
Ag      13.41197600      14.65472600      15.79152700
Ag      17.88796200       6.90209200      15.79152700
Ag      22.36394700      14.65472600      15.79152700
Ag      -0.00649000       0.00721000      18.20122800
Ag       8.94548000      15.51247700      18.20122800
Ag      17.89745000       0.00721000      18.20122800
Ag      26.84942100      15.51247700      18.20122800
Ag       4.46949500       7.75984300      18.20122800
Ag      22.37343500       7.75984300      18.20122800
Ag       8.94548000       0.00721000      18.20122800
Ag      17.89745000      15.51247700      18.20122800
Ag      13.42146500       7.75984300      18.20122800
Ag       2.99367300      -0.01666900      18.41722900
Ag      11.94564300      15.48859800      18.41722900
Ag       7.46965800       7.73596500      18.41722900
Ag      11.94564300      -0.01666900      18.41722900
Ag      20.89761300      15.48859800      18.41722900
Ag      16.42162800       7.73596500      18.41722900
Ag       5.98600400       0.00403100      18.19182300
Ag      14.93797400      15.50929800      18.19182300
Ag      10.46198900       7.75666500      18.19182300
Ag      14.93797400       0.00403100      18.19182300
Ag      23.88994400      15.50929800      18.19182300
Ag      19.41395900       7.75666500      18.19182300
Ag       1.47904500       2.60224900      18.18272000
Ag      19.38298500       2.60224900      18.18272000
Ag       5.95503000      10.35488200      18.18272000
Ag      23.85897000      10.35488200      18.18272000
Ag      10.43101500       2.60224900      18.18272000
Ag      14.90700000      10.35488200      18.18272000
Ag       4.48677200       2.60124100      18.20213700
Ag       8.96275700      10.35387500      18.20213700
Ag      13.43874300       2.60124100      18.20213700
Ag      17.91472800      10.35387500      18.20213700
Ag       7.46370500       2.58472800      18.21123800
Ag      11.93969000      10.33736200      18.21123800
Ag      16.41567500       2.58472800      18.21123800
Ag      20.89166000      10.33736200      18.21123800
Ag       2.98651100       5.17201400      18.20577700
Ag      20.89045200       5.17201400      18.20577700
Ag       7.46249700      12.92464800      18.20577700
Ag      25.36643700      12.92464800      18.20577700
Ag      11.93848100       5.17201400      18.20577700
Ag      16.41446600      12.92464800      18.20577700
Ag       5.96492200       5.15697400      18.19121500
Ag      10.44090700      12.90960800      18.19121500
Ag      14.91689100       5.15697400      18.19121500
Ag      19.39287600      12.90960800      18.19121500
Ag       8.95940000       5.15596600      18.18909200
Ag      13.43538500      12.90860000      18.18909200
Ag      17.91136900       5.15596600      18.18909200
Ag      22.38735500      12.90860000      18.18909200
O       16.51871300       8.94049200      21.27015900
C       16.52036900       7.66309100      20.71498400
H       15.62396400       9.30719200      21.23436100
H       17.46659100       7.18583800      20.93857100
H       15.66720100       7.05257000      20.99681800
