173
Properties=species:S:1:pos:R:3 "Pd36 H1 C1 O1"=T pbc="F F F"
Pd       0.00000000       0.00000000      10.33670500
Pd       8.46407000      14.66020000      10.33670500
Pd      16.92814100       0.00000000      10.33670500
Pd      25.39221100      14.66020000      10.33670500
Pd       4.23203500       7.33010000      10.33670500
Pd      21.16017600       7.33010000      10.33670500
Pd       8.46407000       0.00000000      10.33670500
Pd      16.92814100      14.66020000      10.33670500
Pd      12.69610500       7.33010000      10.33670500
Pd       2.82132900       0.00000000      10.33670500
Pd      11.28539900      14.66020000      10.33670500
Pd       7.05336400       7.33010000      10.33670500
Pd      11.28539900       0.00000000      10.33670500
Pd      19.74946900      14.66020000      10.33670500
Pd      15.51743400       7.33010000      10.33670500
Pd       5.64274200       0.00000000      10.33670500
Pd      14.10681200      14.66020000      10.33670500
Pd       9.87477700       7.33010000      10.33670500
Pd      14.10681200       0.00000000      10.33670500
Pd      22.57088300      14.66020000      10.33670500
Pd      18.33884700       7.33010000      10.33670500
Pd       1.41066400       2.44334200      10.33670500
Pd      18.33880500       2.44334200      10.33670500
Pd       5.64269900       9.77344200      10.33670500
Pd      22.57084000       9.77344200      10.33670500
Pd       9.87473500       2.44334200      10.33670500
Pd      14.10677000       9.77344200      10.33670500
Pd       4.23199300       2.44334200      10.33670500
Pd       8.46402800       9.77344200      10.33670500
Pd      12.69606300       2.44334200      10.33670500
Pd      16.92809800       9.77344200      10.33670500
Pd       7.05340600       2.44334200      10.33670500
Pd      11.28544100       9.77344200      10.33670500
Pd      15.51747700       2.44334200      10.33670500
Pd      19.74951200       9.77344200      10.33670500
Pd       2.82137100       4.88675800      10.33670500
Pd      19.74951200       4.88675800      10.33670500
Pd       7.05340600      12.21685800      10.33670500
Pd      23.98154700      12.21685800      10.33670500
Pd      11.28544100       4.88675800      10.33670500
Pd      15.51747600      12.21685800      10.33670500
Pd       5.64270000       4.88675800      10.33670500
Pd       9.87473500      12.21685800      10.33670500
Pd      14.10677000       4.88675800      10.33670500
Pd      18.33880500      12.21685800      10.33670500
Pd       8.46411300       4.88675800      10.33670500
Pd      12.69614800      12.21685800      10.33670500
Pd      16.92818300       4.88675800      10.33670500
Pd      21.16021800      12.21685800      10.33670500
Pd       1.41066400       0.81444700      12.64048200
Pd       5.64269900       8.14454700      12.64048200
Pd       9.87473500       0.81444700      12.64048200
Pd      14.10677000       8.14454700      12.64048200
Pd       4.23199300       0.81444700      12.64048200
Pd       8.46402800       8.14454700      12.64048200
Pd      12.69606300       0.81444700      12.64048200
Pd      16.92809800       8.14454700      12.64048200
Pd       7.05340600       0.81444700      12.64048200
Pd      11.28544100       8.14454700      12.64048200
Pd      15.51747600       0.81444700      12.64048200
Pd      19.74951100       8.14454700      12.64048200
Pd       2.82132900       3.25779000      12.64048200
Pd       7.05336400      10.58789000      12.64048200
Pd      11.28539900       3.25779000      12.64048200
Pd      15.51743400      10.58789000      12.64048200
Pd       5.64265700       3.25779000      12.64048200
Pd       9.87469200      10.58789000      12.64048200
Pd      14.10672800       3.25779000      12.64048200
Pd      18.33876300      10.58789000      12.64048200
Pd       8.46407000       3.25779000      12.64048200
Pd      12.69610500      10.58789000      12.64048200
Pd      16.92814100       3.25779000      12.64048200
Pd      21.16017600      10.58789000      12.64048200
Pd       4.23203500       5.70120500      12.64048200
Pd       8.46407000      13.03130500      12.64048200
Pd      12.69610500       5.70120500      12.64048200
Pd      16.92814100      13.03130500      12.64048200
Pd       7.05336400       5.70120500      12.64048200
Pd      11.28539900      13.03130500      12.64048200
Pd      15.51743400       5.70120500      12.64048200
Pd      19.74946900      13.03130500      12.64048200
Pd       9.87477700       5.70120500      12.64048200
Pd      14.10681200      13.03130500      12.64048200
Pd      18.33884700       5.70120500      12.64048200
Pd      22.57088200      13.03130500      12.64048200
Pd       8.47486200       1.63541900      14.93225000
Pd      12.70689700       8.96551900      14.93225000
Pd      16.93893300       1.63541900      14.93225000
Pd      21.17096800       8.96551900      14.93225000
Pd       2.81650400       1.62610900      14.93785400
Pd       7.04853900       8.95620900      14.93785400
Pd      11.28057400       1.62610900      14.93785400
Pd      15.51260900       8.95620900      14.93785400
Pd       5.64418000       1.63666500      14.92504500
Pd       9.87621600       8.96676500      14.92504500
Pd      14.10825100       1.63666500      14.92504500
Pd      18.34028600       8.96676500      14.92504500
Pd       9.87401500       4.06351400      14.94826100
Pd      14.10605000      11.39361400      14.94826100
Pd      18.33808500       4.06351400      14.94826100
Pd      22.57012100      11.39361400      14.94826100
Pd       4.23948300       4.06967100      14.92504500
Pd       8.47151900      11.39977100      14.92504500
Pd      12.70355400       4.06967100      14.92504500
Pd      16.93558900      11.39977100      14.92504500
Pd       7.05941500       4.07575500      14.92291000
Pd      11.29145000      11.40585500      14.92291000
Pd      15.52348600       4.07575500      14.92291000
Pd      19.75552100      11.40585500      14.92291000
Pd      11.28226700       6.51382000      14.90529700
Pd      15.51430200      13.84392000      14.90529700
Pd      19.74633700       6.51382000      14.90529700
Pd      23.97837200      13.84392000      14.90529700
Pd       5.65366100       6.52173700      14.93225000
Pd       9.88569600      13.85183700      14.93225000
Pd      14.11773100       6.52173700      14.93225000
Pd      18.34976600      13.85183700      14.93225000
Pd       8.45603000       6.51939100      14.94826100
Pd      12.68806500      13.84949100      14.94826100
Pd      16.92010000       6.51939100      14.94826100
Pd      21.15213500      13.84949100      14.94826100
Pd      12.68789600       7.32540900      17.20427000
Pd       8.45586000      -0.00469100      17.20427000
Pd      16.91993100      14.65550900      17.20427000
Pd       4.22382500       7.32540900      17.20427000
Pd      21.15196600       7.32540900      17.20427000
Pd      -0.00821000      -0.00469100      17.20427000
Pd       8.45586000      14.65550900      17.20427000
Pd      16.91993100      -0.00469100      17.20427000
Pd      25.38400100      14.65550900      17.20427000
Pd       2.81950900       0.04376100      17.36545300
Pd      11.28357900      14.70396100      17.36545300
Pd       7.05154400       7.37386100      17.36545300
Pd      11.28357900       0.04376100      17.36545300
Pd      19.74765000      14.70396100      17.36545300
Pd      15.51561400       7.37386100      17.36545300
Pd       9.89746100       7.32731500      17.21814700
Pd       5.66542500      -0.00278500      17.21814700
Pd      14.12949600      14.65741500      17.21814700
Pd      18.36153100       7.32731500      17.21814700
Pd      14.12949600      -0.00278500      17.21814700
Pd      22.59356600      14.65741500      17.21814700
Pd       1.44765200       2.41988600      17.36545300
Pd      18.37579300       2.41988600      17.36545300
Pd       5.67968700       9.74998600      17.36545300
Pd      22.60782800       9.74998600      17.36545300
Pd       9.91172300       2.41988600      17.36545300
Pd      14.14375800       9.74998600      17.36545300
Pd       4.30461400       2.48527000      17.22988800
Pd       8.53665000       9.81537000      17.22988800
Pd      12.76868500       2.48527000      17.22988800
Pd      17.00072000       9.81537000      17.22988800
Pd       7.09039400       2.45565700      17.22695400
Pd      11.32242900       9.78575700      17.22695400
Pd      15.55446400       2.45565700      17.22695400
Pd      19.78649900       9.78575700      17.22695400
Pd      11.29437100       4.90779500      17.21814700
Pd      15.52640600      12.23789500      17.21814700
Pd       2.83030100       4.90779500      17.21814700
Pd      19.75844100       4.90779500      17.21814700
Pd       7.06233600      12.23789500      17.21814700
Pd      23.99047600      12.23789500      17.21814700
Pd       5.67185800       4.91263300      17.22695400
Pd       9.90389300      12.24273300      17.22695400
Pd      14.13592800       4.91263300      17.22695400
Pd      18.36796400      12.24273300      17.22695400
Pd       8.47566600       4.89342800      17.24269700
Pd      12.70770100      12.22352800      17.24269700
Pd      16.93973700       4.89342800      17.24269700
Pd      21.17177200      12.22352800      17.24269700
H       14.46340300       8.35045000      19.63427000
C       15.17425800       8.76086200      18.89801200
O       16.19261300       9.34881000      19.30950600
