160
Properties=species:S:1:pos:R:3 "Rh36 C1 O1"=T pbc="F F F"
Rh       0.00000000       0.00000000       9.99993200
Rh       8.18829900      14.18255200       9.99993200
Rh      16.37660000       0.00000000       9.99993200
Rh      24.56489900      14.18255200       9.99993200
Rh       4.09415000       7.09127600       9.99993200
Rh      20.47075000       7.09127600       9.99993200
Rh       8.18830000       0.00000000       9.99993200
Rh      16.37659900      14.18255200       9.99993200
Rh      12.28245000       7.09127600       9.99993200
Rh       2.72940600       0.00000000       9.99993200
Rh      10.91770500      14.18255200       9.99993200
Rh       6.82355600       7.09127600       9.99993200
Rh      10.91770600       0.00000000       9.99993200
Rh      19.10600500      14.18255200       9.99993200
Rh      15.01185600       7.09127600       9.99993200
Rh       5.45889400       0.00000000       9.99993200
Rh      13.64719300      14.18255200       9.99993200
Rh       9.55304400       7.09127600       9.99993200
Rh      13.64719400       0.00000000       9.99993200
Rh      21.83549400      14.18255200       9.99993200
Rh      17.74134400       7.09127600       9.99993200
Rh       9.55300300       2.36373500       9.99993200
Rh      13.64715300       9.45501100       9.99993200
Rh       1.36470300       2.36373500       9.99993200
Rh      17.74130300       2.36373500       9.99993200
Rh       5.45885300       9.45501100       9.99993200
Rh      21.83545300       9.45501100       9.99993200
Rh       4.09410900       2.36373500       9.99993200
Rh       8.18825900       9.45501100       9.99993200
Rh      12.28240900       2.36373500       9.99993200
Rh      16.37655900       9.45501100       9.99993200
Rh       6.82359700       2.36373500       9.99993200
Rh      10.91774700       9.45501100       9.99993200
Rh      15.01189700       2.36373500       9.99993200
Rh      19.10604700       9.45501100       9.99993200
Rh      10.91774700       4.72754100       9.99993200
Rh      15.01189700      11.81881700       9.99993200
Rh       2.72944700       4.72754100       9.99993200
Rh      19.10604700       4.72754100       9.99993200
Rh       6.82359600      11.81881700       9.99993200
Rh      23.20019700      11.81881700       9.99993200
Rh       5.45885300       4.72754100       9.99993200
Rh       9.55300300      11.81881700       9.99993200
Rh      13.64715300       4.72754100       9.99993200
Rh      17.74130300      11.81881700       9.99993200
Rh       8.18834100       4.72754100       9.99993200
Rh      12.28249100      11.81881700       9.99993200
Rh      16.37664100       4.72754100       9.99993200
Rh      20.47079100      11.81881700       9.99993200
Rh       1.36470300       0.78791200      12.22845500
Rh       5.45885300       7.87918800      12.22845500
Rh       9.55300300       0.78791200      12.22845500
Rh      13.64715300       7.87918800      12.22845500
Rh       4.09410900       0.78791200      12.22845500
Rh       8.18825900       7.87918800      12.22845500
Rh      12.28240900       0.78791200      12.22845500
Rh      16.37655900       7.87918800      12.22845500
Rh       6.82359700       0.78791200      12.22845500
Rh      10.91774700       7.87918800      12.22845500
Rh      15.01189700       0.78791200      12.22845500
Rh      19.10604700       7.87918800      12.22845500
Rh       2.72940600       3.15164700      12.22845500
Rh       6.82355600      10.24292300      12.22845500
Rh      10.91770600       3.15164700      12.22845500
Rh      15.01185600      10.24292300      12.22845500
Rh       5.45881200       3.15164700      12.22845500
Rh       9.55296200      10.24292300      12.22845500
Rh      13.64711200       3.15164700      12.22845500
Rh      17.74126200      10.24292300      12.22845500
Rh       8.18830000       3.15164700      12.22845500
Rh      12.28245000      10.24292300      12.22845500
Rh      16.37660000       3.15164700      12.22845500
Rh      20.47075000      10.24292300      12.22845500
Rh       4.09415000       5.51545300      12.22845500
Rh       8.18829900      12.60672900      12.22845500
Rh      12.28245000       5.51545300      12.22845500
Rh      16.37659900      12.60672900      12.22845500
Rh       6.82355600       5.51545300      12.22845500
Rh      10.91770500      12.60672900      12.22845500
Rh      15.01185600       5.51545300      12.22845500
Rh      19.10600600      12.60672900      12.22845500
Rh       9.55304400       5.51545300      12.22845500
Rh      13.64719300      12.60672900      12.22845500
Rh      17.74134400       5.51545300      12.22845500
Rh      21.83549300      12.60672900      12.22845500
Rh       8.19309000       1.57546900      14.42975800
Rh      12.28724000       8.66674500      14.42975800
Rh      16.38139000       1.57546900      14.42975800
Rh      20.47554000       8.66674500      14.42975800
Rh       2.72973300       1.57554000      14.44470200
Rh       6.82388300       8.66681600      14.44470200
Rh      10.91803400       1.57554000      14.44470200
Rh      15.01218300       8.66681600      14.44470200
Rh       5.45541400       1.57518500      14.42869100
Rh       9.54956400       8.66646100      14.42869100
Rh      13.64371400       1.57518500      14.42869100
Rh      17.73786400       8.66646100      14.42869100
Rh       9.55550000       3.93636800      14.43029300
Rh      13.64965000      11.02764400      14.43029300
Rh      17.74380000       3.93636800      14.43029300
Rh      21.83795000      11.02764400      14.43029300
Rh       4.09214400       3.93672200      14.42842400
Rh       8.18629300      11.02799800      14.42842400
Rh      12.28044400       3.93672200      14.42842400
Rh      16.37459300      11.02799800      14.42842400
Rh       6.82388400       3.93977100      14.42522200
Rh      10.91803300      11.03104800      14.42522200
Rh      15.01218400       3.93977100      14.42522200
Rh      19.10633300      11.03104800      14.42522200
Rh      10.91811500       6.30315200      14.42415500
Rh      15.01226500      13.39442800      14.42415500
Rh      19.10641500       6.30315200      14.42415500
Rh      23.20056500      13.39442800      14.42415500
Rh       5.46143200       6.30726500      14.43002500
Rh       9.55558200      13.39854100      14.43002500
Rh      13.64973200       6.30726500      14.43002500
Rh      17.74388200      13.39854100      14.43002500
Rh       8.18658000       6.30669700      14.43055800
Rh      12.28073000      13.39797400      14.43055800
Rh      16.37488000       6.30669700      14.43055800
Rh      20.46903000      13.39797400      14.43055800
Rh      12.26017800       7.07766100      16.62545700
Rh      16.35432700      14.16893700      16.62545700
Rh      20.44847800       7.07766100      16.62545700
Rh      24.54262700      14.16893700      16.62545700
Rh       6.82535700       7.06929300      16.72286000
Rh      10.91950700      14.16057000      16.72286000
Rh      15.01365700       7.06929300      16.72286000
Rh      19.10780700      14.16057000      16.72286000
Rh       9.57842800       7.07737700      16.62465700
Rh      13.67257700      14.16865400      16.62465700
Rh      17.76672800       7.07737700      16.62465700
Rh      21.86087700      14.16865400      16.62465700
Rh       9.53539800       2.37536500      16.72152600
Rh      13.62954800       9.46664100      16.72152600
Rh      17.72369800       2.37536500      16.72152600
Rh      21.81784800       9.46664100      16.72152600
Rh       4.11777300       2.37678300      16.71779100
Rh       8.21192300       9.46805900      16.71779100
Rh      12.30607300       2.37678300      16.71779100
Rh      16.40022300       9.46805900      16.71779100
Rh       6.82589000       2.37210300      16.63773300
Rh      10.92003900       9.46337900      16.63773300
Rh      15.01419000       2.37210300      16.63773300
Rh      19.10834000       9.46337900      16.63773300
Rh      10.91897500       4.75533900      16.62439000
Rh      15.01312400      11.84661500      16.62439000
Rh      19.10727500       4.75533900      16.62439000
Rh      23.20142500      11.84661500      16.62439000
Rh       5.46769600       4.72470500      16.63746600
Rh       9.56184600      11.81598100      16.63746600
Rh      13.65599600       4.72470500      16.63746600
Rh      17.75014600      11.81598100      16.63746600
Rh       8.18154400       4.72314500      16.63826600
Rh      12.27569400      11.81442100      16.63826600
Rh      16.36984400       4.72314500      16.63826600
Rh      20.46399400      11.81442100      16.63826600
H       13.65071500       7.88110300      17.63337700
C       15.02295100       8.67227600      18.08169600
O       15.02708600       8.67759500      19.26707500
