160
Properties=species:S:1:pos:R:3 "Rh36 H1 C1 O1"=T pbc="F F F"
Rh       0.00000000       0.00000000       9.99993200
Rh       8.18829900      14.18255200       9.99993200
Rh      16.37660000       0.00000000       9.99993200
Rh      24.56489900      14.18255200       9.99993200
Rh       4.09415000       7.09127600       9.99993200
Rh      20.47075000       7.09127600       9.99993200
Rh       8.18830000       0.00000000       9.99993200
Rh      16.37659900      14.18255200       9.99993200
Rh      12.28245000       7.09127600       9.99993200
Rh       2.72940600       0.00000000       9.99993200
Rh      10.91770500      14.18255200       9.99993200
Rh       6.82355600       7.09127600       9.99993200
Rh      10.91770600       0.00000000       9.99993200
Rh      19.10600500      14.18255200       9.99993200
Rh      15.01185600       7.09127600       9.99993200
Rh       5.45889400       0.00000000       9.99993200
Rh      13.64719300      14.18255200       9.99993200
Rh       9.55304400       7.09127600       9.99993200
Rh      13.64719400       0.00000000       9.99993200
Rh      21.83549400      14.18255200       9.99993200
Rh      17.74134400       7.09127600       9.99993200
Rh       9.55300300       2.36373500       9.99993200
Rh      13.64715300       9.45501100       9.99993200
Rh       1.36470300       2.36373500       9.99993200
Rh      17.74130300       2.36373500       9.99993200
Rh       5.45885300       9.45501100       9.99993200
Rh      21.83545300       9.45501100       9.99993200
Rh       4.09410900       2.36373500       9.99993200
Rh       8.18825900       9.45501100       9.99993200
Rh      12.28240900       2.36373500       9.99993200
Rh      16.37655900       9.45501100       9.99993200
Rh       6.82359700       2.36373500       9.99993200
Rh      10.91774700       9.45501100       9.99993200
Rh      15.01189700       2.36373500       9.99993200
Rh      19.10604700       9.45501100       9.99993200
Rh      10.91774700       4.72754100       9.99993200
Rh      15.01189700      11.81881700       9.99993200
Rh       2.72944700       4.72754100       9.99993200
Rh      19.10604700       4.72754100       9.99993200
Rh       6.82359600      11.81881700       9.99993200
Rh      23.20019700      11.81881700       9.99993200
Rh       5.45885300       4.72754100       9.99993200
Rh       9.55300300      11.81881700       9.99993200
Rh      13.64715300       4.72754100       9.99993200
Rh      17.74130300      11.81881700       9.99993200
Rh       8.18834100       4.72754100       9.99993200
Rh      12.28249100      11.81881700       9.99993200
Rh      16.37664100       4.72754100       9.99993200
Rh      20.47079100      11.81881700       9.99993200
Rh       1.36470300       0.78791200      12.22845500
Rh       5.45885300       7.87918800      12.22845500
Rh       9.55300300       0.78791200      12.22845500
Rh      13.64715300       7.87918800      12.22845500
Rh       4.09410900       0.78791200      12.22845500
Rh       8.18825900       7.87918800      12.22845500
Rh      12.28240900       0.78791200      12.22845500
Rh      16.37655900       7.87918800      12.22845500
Rh       6.82359700       0.78791200      12.22845500
Rh      10.91774700       7.87918800      12.22845500
Rh      15.01189700       0.78791200      12.22845500
Rh      19.10604700       7.87918800      12.22845500
Rh       2.72940600       3.15164700      12.22845500
Rh       6.82355600      10.24292300      12.22845500
Rh      10.91770600       3.15164700      12.22845500
Rh      15.01185600      10.24292300      12.22845500
Rh       5.45881200       3.15164700      12.22845500
Rh       9.55296200      10.24292300      12.22845500
Rh      13.64711200       3.15164700      12.22845500
Rh      17.74126200      10.24292300      12.22845500
Rh       8.18830000       3.15164700      12.22845500
Rh      12.28245000      10.24292300      12.22845500
Rh      16.37660000       3.15164700      12.22845500
Rh      20.47075000      10.24292300      12.22845500
Rh       4.09415000       5.51545300      12.22845500
Rh       8.18829900      12.60672900      12.22845500
Rh      12.28245000       5.51545300      12.22845500
Rh      16.37659900      12.60672900      12.22845500
Rh       6.82355600       5.51545300      12.22845500
Rh      10.91770500      12.60672900      12.22845500
Rh      15.01185600       5.51545300      12.22845500
Rh      19.10600600      12.60672900      12.22845500
Rh       9.55304400       5.51545300      12.22845500
Rh      13.64719300      12.60672900      12.22845500
Rh      17.74134400       5.51545300      12.22845500
Rh      21.83549300      12.60672900      12.22845500
Rh       8.19157500       1.57213600      14.42922400
Rh      12.28572500       8.66341200      14.42922400
Rh      16.37987500       1.57213600      14.42922400
Rh      20.47402500       8.66341200      14.42922400
Rh       2.72821900       1.57419200      14.42708900
Rh       6.82236800       8.66546900      14.42708900
Rh      10.91651900       1.57419200      14.42708900
Rh      15.01066800       8.66546900      14.42708900
Rh       5.45217900       1.57227800      14.42735600
Rh       9.54632900       8.66355400      14.42735600
Rh      13.64048000       1.57227800      14.42735600
Rh      17.73462900       8.66355400      14.42735600
Rh       9.55582800       3.93282200      14.43136000
Rh      13.64997800      11.02409800      14.43136000
Rh      17.74412800       3.93282200      14.43136000
Rh      21.83827800      11.02409800      14.43136000
Rh       4.08821300       3.93459400      14.42975800
Rh       8.18236300      11.02587100      14.42975800
Rh      12.27651300       3.93459400      14.42975800
Rh      16.37066300      11.02587100      14.42975800
Rh       6.82146800       3.93757300      14.42708900
Rh      10.91561800      11.02884900      14.42708900
Rh      15.00976800       3.93757300      14.42708900
Rh      19.10391800      11.02884900      14.42708900
Rh      10.91533100       6.30201700      14.41908400
Rh      15.00948100      13.39329300      14.41908400
Rh      19.10363100       6.30201700      14.41908400
Rh      23.19778100      13.39329300      14.41908400
Rh       5.45774700       6.30754800      14.43029300
Rh       9.55189700      13.39882500      14.43029300
Rh      13.64604700       6.30754800      14.43029300
Rh      17.74019700      13.39882500      14.43029300
Rh       8.18441000       6.30889600      14.43029300
Rh      12.27856000      13.40017200      14.43029300
Rh      16.37271000       6.30889600      14.43029300
Rh      20.46686000      13.40017200      14.43029300
Rh      12.24953300       7.07525000      16.62332300
Rh      16.34368200      14.16652600      16.62332300
Rh      20.43783300       7.07525000      16.62332300
Rh      24.53198200      14.16652600      16.62332300
Rh       6.81639100       7.06723700      16.73753800
Rh      10.91054000      14.15851300      16.73753800
Rh      15.00469100       7.06723700      16.73753800
Rh      19.09884000      14.15851300      16.73753800
Rh       9.57486500       7.07532100      16.62252200
Rh      13.66901500      14.16659700      16.62252200
Rh      17.76316500       7.07532100      16.62252200
Rh      21.85731500      14.16659700      16.62252200
Rh       9.52327900       2.37720800      16.74074000
Rh      13.61742900       9.46848500      16.74074000
Rh      17.71157900       2.37720800      16.74074000
Rh      21.80572900       9.46848500      16.74074000
Rh       4.11314700       2.37713800      16.73166700
Rh       8.20729600       9.46841400      16.73166700
Rh      12.30144700       2.37713800      16.73166700
Rh      16.39559700       9.46841400      16.73166700
Rh       6.81700500       2.36820300      16.64734000
Rh      10.91115500       9.45947900      16.64734000
Rh      15.00530500       2.36820300      16.64734000
Rh      19.09945500       9.45947900      16.64734000
Rh      10.91217900       4.75831700      16.62172200
Rh      15.00632800      11.84959400      16.62172200
Rh      19.10047900       4.75831700      16.62172200
Rh      23.19462900      11.84959400      16.62172200
Rh       5.46004000       4.72449200      16.64333700
Rh       9.55418900      11.81576800      16.64333700
Rh      13.64834000       4.72449200      16.64333700
Rh      17.74249000      11.81576800      16.64333700
Rh       8.17634500       4.72605200      16.64493900
Rh      12.27049500      11.81732800      16.64493900
Rh      16.36464500       4.72605200      16.64493900
Rh      20.45879500      11.81732800      16.64493900
H       14.18197200       8.73531800      19.66495800
C       15.00804800       8.69610300      17.93919500
O       15.07253100       8.68709700      19.27561500
