    10
 geometry
 C                    -2.76636520    -0.56845736    -0.05609688
 H                    -3.10149027    -1.12339018     0.81524544
 H                    -2.94419034    -1.12550500    -0.97090853
 H                    -3.22980674     0.41131269    -0.09482571
 Cl                   -0.97150246    -0.30854968     0.10261999
 O                    -6.03120179     0.89741513    -0.26307353
 H                    -6.81888159     0.43583783     0.04583583
 O                    -4.60431789     3.94302491     0.37463077
 H                    -4.11987316     3.66395894    -0.41235474
 H                    -5.30947816     3.28480794     0.45892683
    10
 geometry
 C                    -2.81026252    -0.50814046    -0.05675047
 H                    -3.16154203    -1.05133562     0.81537939
 H                    -2.99296679    -1.06785098    -0.96947886
 H                    -3.25956089     0.47645113    -0.10979584
 Cl                   -1.01007045    -0.28391815     0.11148651
 O                    -5.97967761     0.78782762    -0.26851395
 H                    -6.77472995     0.34818793     0.05494402
 O                    -4.53837022     3.87865166     0.37253838
 H                    -4.02950414     3.60219951    -0.39984844
 H                    -5.23590863     3.21080265     0.44419536
    10
 geometry
 C                    -2.86274249    -0.44125919    -0.06152008
 H                    -3.22360928    -0.97341246     0.81351605
 H                    -3.04109381    -1.00903205    -0.96976820
 H                    -3.29283642     0.54920841    -0.12037066
 Cl                   -1.05354527    -0.25893195     0.12246113
 O                    -5.91625007     0.66824494    -0.26391499
 H                    -6.72982026     0.26467182     0.06391879
 O                    -4.48688159     3.82338555     0.36837172
 H                    -3.94973479     3.55214548    -0.38656338
 H                    -5.17085827     3.14179620     0.42398319
    10
 geometry
 C                    -2.90315389    -0.38460784    -0.06613708
 H                    -3.27665993    -0.90361332     0.81234975
 H                    -3.08093280    -0.96344875    -0.96783483
 H                    -3.32566520     0.60892224    -0.13933485
 Cl                   -1.09057724    -0.23313457     0.13367187
 O                    -5.85197568     0.52865604    -0.26088205
 H                    -6.67747561     0.16142451     0.07837752
 O                    -4.42577613     3.76450251     0.36402147
 H                    -3.86788699     3.49380132    -0.37564801
 H                    -5.10033424     3.07266557     0.41135560
    10
 geometry
 C                    -2.93680108    -0.34478915    -0.06999417
 H                    -3.32859453    -0.83868089     0.81442678
 H                    -3.11359704    -0.93645146    -0.96193836
 H                    -3.35555712     0.64969005    -0.16799018
 Cl                   -1.12755777    -0.18335594     0.15067078
 O                    -5.79787339     0.39317914    -0.27551796
 H                    -6.60313941     0.02284158     0.10577438
 O                    -4.37032016     3.71188026     0.36255461
 H                    -3.77792350     3.44346310    -0.35156972
 H                    -5.02803995     3.00221561     0.39662136
    10
 geometry
 C                    -2.97502901    -0.30587781    -0.07489712
 H                    -3.37581202    -0.78093259     0.81354985
 H                    -3.13217997    -0.92235834    -0.95305432
 H                    -3.39286155     0.68360653    -0.20847282
 Cl                   -1.16224849    -0.12658865     0.16616955
 O                    -5.71486279     0.18290053    -0.31042335
 H                    -6.50560673    -0.14063723     0.13452896
 O                    -4.34815794     3.68899118     0.35782664
 H                    -3.71253780     3.42313098    -0.31859412
 H                    -4.97337413     2.95263042     0.38684657
    10
 geometry
 C                    -3.01431571    -0.27403723    -0.08939358
 H                    -3.41327303    -0.73297035     0.80825871
 H                    -3.13678567    -0.92347045    -0.94859539
 H                    -3.45197233     0.70002800    -0.26370227
 Cl                   -1.20685317    -0.02554417     0.17686506
 O                    -5.66153462    -0.04101892    -0.36134775
 H                    -6.41681549    -0.33170014     0.15697412
 O                    -4.34488055     3.68884122     0.35738997
 H                    -3.65742558     3.43500602    -0.27129046
 H                    -4.93121800     2.92191796     0.37761319
    10
 geometry
 C                    -3.05955592    -0.25195694    -0.10383697
 H                    -3.44506166    -0.70617982     0.80316438
 H                    -3.13403325    -0.93093085    -0.94595041
 H                    -3.53404861     0.69871195    -0.31255002
 Cl                   -1.26415934     0.09436008     0.17907912
 O                    -5.63967281    -0.27111014    -0.41074411
 H                    -6.34856079    -0.51234004     0.18913355
 O                    -4.33880211     3.69976256     0.35666771
 H                    -3.60877021     3.45614035    -0.22617458
 H                    -4.88814062     2.90624485     0.37949878
    10
 geometry
 C                    -3.11609647    -0.24201042    -0.11699109
 H                    -3.47128619    -0.69659672     0.80188294
 H                    -3.12211461    -0.94371187    -0.94301142
 H                    -3.63367525     0.67837893    -0.35869347
 Cl                   -1.33227817     0.22646798     0.16672105
 O                    -5.61092110    -0.49313986    -0.45497897
 H                    -6.27250952    -0.65783933     0.22196379
 O                    -4.33136494     3.71959165     0.35391266
 H                    -3.56242926     3.48496593    -0.17990979
 H                    -4.85094473     2.90691662     0.38222988
    10
 geometry
 C                    -3.17665906    -0.24311011    -0.13422250
 H                    -3.48296515    -0.69188513     0.80343520
 H                    -3.11334188    -0.95963030    -0.94387577
 H                    -3.72038382     0.65165920    -0.40439145
 Cl                   -1.39360084     0.36863168     0.16152735
 O                    -5.55895377    -0.69913193    -0.48367871
 H                    -6.17039821    -0.80293680     0.24934981
 O                    -4.32380951     3.74535198     0.35222780
 H                    -3.51522586     3.52455743    -0.12631439
 H                    -4.81336665     2.91438566     0.38477629
    10
 geometry
 C                    -3.34485732    -0.28153554    -0.15962948
 H                    -3.50421624    -0.69147833     0.81983733
 H                    -3.11365618    -0.97364965    -0.95206856
 H                    -3.78840826     0.64989577    -0.43901661
 Cl                   -1.40527280     0.50391588     0.18714667
 O                    -5.48567325    -0.87707741    -0.51356865
 H                    -6.07968790    -0.89313824     0.25032602
 O                    -4.31929294     3.76938052     0.34587059
 H                    -3.47882983     3.56967486    -0.08339115
 H                    -4.77495157     2.92034848     0.38921099
    10
 geometry
 C                    -3.64576301    -0.39241446    -0.20773939
 H                    -3.50990102    -0.69249626     0.82162081
 H                    -3.12733429    -0.99090822    -0.95347740
 H                    -3.81558841     0.63784277    -0.45785459
 Cl                   -1.37356487     0.64033508     0.21153681
 O                    -5.34368506    -0.94405967    -0.52075729
 H                    -5.96149869    -0.94233357     0.23664840
 O                    -4.32095807     3.77808868     0.34373423
 H                    -3.46201756     3.59815257    -0.05545641
 H                    -4.75200509     2.91745853     0.38898000
    10
 geometry
 C                    -3.84434358    -0.48848645    -0.23762221
 H                    -3.52558071    -0.69178634     0.80221733
 H                    -3.14665924    -1.00009254    -0.93696688
 H                    -3.85832950     0.58647422    -0.46808874
 Cl                   -1.40958651     0.79868274     0.23001104
 O                    -5.22683650    -1.02025530    -0.51673349
 H                    -5.85344446    -1.00995495     0.23195520
 O                    -4.32036792     3.79381861     0.34217405
 H                    -3.43787200     3.64505850    -0.02214152
 H                    -4.71232520     2.91213104     0.38490344
    10
 geometry
 C                    -3.89759135    -0.54842020    -0.25003876
 H                    -3.54535222    -0.69209519     0.78137275
 H                    -3.14949533    -0.99174439    -0.92681503
 H                    -3.94611959     0.52452882    -0.48199156
 Cl                   -1.49531821     0.97575187     0.23563348
 O                    -5.16606830    -1.17442718    -0.51283613
 H                    -5.77511682    -1.10371217     0.23485852
 O                    -4.31185097     3.81131706     0.33654242
 H                    -3.39997162     3.70717984     0.03939074
 H                    -4.65424773     2.91065522     0.37340969
    10
 geometry
 C                    -3.91926215    -0.59220713    -0.25617671
 H                    -3.55872809    -0.69215677     0.76828451
 H                    -3.14909203    -0.97869312    -0.91918315
 H                    -4.05128492     0.46789680    -0.49138958
 Cl                   -1.59236292     1.14247251     0.25309139
 O                    -5.12568072    -1.33545800    -0.48818144
 H                    -5.74183059    -1.18972371     0.23823414
 O                    -4.29335029     3.83867880     0.32893962
 H                    -3.35212906     3.78514649     0.11748793
 H                    -4.57818405     2.91703514     0.34836340
    10
 geometry
 C                    -3.93401877    -0.61391196    -0.25473951
 H                    -3.55873523    -0.69229785     0.76819944
 H                    -3.13793262    -0.94126774    -0.92228063
 H                    -4.15036903     0.43157953    -0.47492709
 Cl                   -1.73399173     1.36636013     0.30782188
 O                    -5.07708412    -1.45442032    -0.47340115
 H                    -5.71331452    -1.28125056     0.22817221
 O                    -4.29273793     3.86928515     0.31805693
 H                    -3.33289889     3.85912847     0.21396157
 H                    -4.52615066     2.93301504     0.30938327
    10
 geometry
 C                    -3.95006157    -0.62092039    -0.25003666
 H                    -3.55849972    -0.69308289     0.76820729
 H                    -3.15144404    -0.89915754    -0.93755855
 H                    -4.23102580     0.41394669    -0.44881016
 Cl                   -1.79725551     1.54778225     0.35878861
 O                    -5.04167489    -1.53159744    -0.46323387
 H                    -5.70357587    -1.36103635     0.21567967
 O                    -4.23981363     3.92831311     0.26547747
 H                    -3.27547238     3.95050699     0.31202049
 H                    -4.42758268     2.98284742     0.23655445
    10
 geometry
 C                    -3.96343355    -0.62800883    -0.24396704
 H                    -3.55368097    -0.70912076     0.76515784
 H                    -3.17527109    -0.86224775    -0.95889596
 H                    -4.29692921     0.39920488    -0.40762749
 Cl                   -1.78387135     1.75736153     0.48908038
 O                    -5.02143638    -1.57720642    -0.45617489
 H                    -5.70642857    -1.40575979     0.19948537
 O                    -4.19125980     3.99230125     0.21228004
 H                    -3.24264048     4.05446161     0.38619457
 H                    -4.31760038     3.03682652     0.13906239
    10
 geometry
 C                    -3.96703770    -0.63468177    -0.24070714
 H                    -3.53194052    -0.73957831     0.75737607
 H                    -3.19518666    -0.84224804    -0.98235247
 H                    -4.31342082     0.39466986    -0.37032982
 Cl                   -1.71885529     2.01868700     0.74852417
 O                    -5.02159477    -1.58432558    -0.45658222
 H                    -5.71348021    -1.41674502     0.19324952
 O                    -4.16242435     4.06252324     0.17052667
 H                    -3.23614444     4.18732398     0.42371829
 H                    -4.20507771     3.10190504     0.07121017
    10
 geometry
 C                    -3.96694898    -0.63700491    -0.24076941
 H                    -3.53095787    -0.75064049     0.75648994
 H                    -3.20007441    -0.84747947    -0.98649950
 H                    -4.31081608     0.39371559    -0.36943629
 Cl                   -1.59221111     2.32653037     1.00703499
 O                    -5.02636523    -1.58158487    -0.45891797
 H                    -5.71594900    -1.42334300     0.19593129
 O                    -4.16581226     4.15911883     0.14118152
 H                    -3.27521228     4.37618777     0.45436670
 H                    -4.11247981     3.19813878     0.04954371
