174
Properties=species:S:1:pos:R:3 "Ag36 H2 C1 O1"=T pbc="F F F"
Ag       0.00000000       0.00000000      10.93259800
Ag       8.95197000      15.50526700      10.93259800
Ag      17.90394000       0.00000000      10.93259800
Ag      26.85591000      15.50526700      10.93259800
Ag       4.47598500       7.75263400      10.93259800
Ag      22.37992500       7.75263400      10.93259800
Ag       8.95197000       0.00000000      10.93259800
Ag      17.90394000      15.50526700      10.93259800
Ag      13.42795500       7.75263400      10.93259800
Ag       2.98396000       0.00000000      10.93259800
Ag      11.93593000      15.50526700      10.93259800
Ag       7.45994500       7.75263400      10.93259800
Ag      11.93593000       0.00000000      10.93259800
Ag      20.88790000      15.50526700      10.93259800
Ag      16.41191500       7.75263400      10.93259800
Ag       5.96801000       0.00000000      10.93259800
Ag      14.91998000      15.50526700      10.93259800
Ag      10.44399500       7.75263400      10.93259800
Ag      14.91998000       0.00000000      10.93259800
Ag      23.87195000      15.50526700      10.93259800
Ag      19.39596500       7.75263400      10.93259800
Ag      10.44395000       2.58418500      10.93259800
Ag      14.91993500      10.33681900      10.93259800
Ag       1.49198000       2.58418500      10.93259800
Ag      19.39592000       2.58418500      10.93259800
Ag       5.96796500      10.33681900      10.93259800
Ag      23.87190500      10.33681900      10.93259800
Ag       4.47594000       2.58418500      10.93259800
Ag       8.95192500      10.33681900      10.93259800
Ag      13.42791000       2.58418500      10.93259800
Ag      17.90389600      10.33681900      10.93259800
Ag       7.45999000       2.58418500      10.93259800
Ag      11.93597500      10.33681900      10.93259800
Ag      16.41196000       2.58418500      10.93259800
Ag      20.88794500      10.33681900      10.93259800
Ag      11.93597500       5.16844800      10.93259800
Ag      16.41196000      12.92108200      10.93259800
Ag       2.98400500       5.16844800      10.93259800
Ag      20.88794500       5.16844800      10.93259800
Ag       7.45999000      12.92108200      10.93259800
Ag      25.36393000      12.92108200      10.93259800
Ag       5.96796500       5.16844800      10.93259800
Ag      10.44395000      12.92108200      10.93259800
Ag      14.91993500       5.16844800      10.93259800
Ag      19.39592000      12.92108200      10.93259800
Ag       8.95201500       5.16844800      10.93259800
Ag      13.42800000      12.92108200      10.93259800
Ag      17.90398500       5.16844800      10.93259800
Ag      22.37997000      12.92108200      10.93259800
Ag       1.49198000       0.86139500      13.36900200
Ag       5.96796500       8.61402900      13.36900200
Ag      10.44395000       0.86139500      13.36900200
Ag      14.91993500       8.61402900      13.36900200
Ag       4.47594000       0.86139500      13.36900200
Ag       8.95192500       8.61402900      13.36900200
Ag      13.42791000       0.86139500      13.36900200
Ag      17.90389600       8.61402900      13.36900200
Ag       7.45999000       0.86139500      13.36900200
Ag      11.93597500       8.61402900      13.36900200
Ag      16.41196000       0.86139500      13.36900200
Ag      20.88794500       8.61402900      13.36900200
Ag       2.98396000       3.44558000      13.36900200
Ag       7.45994500      11.19821400      13.36900200
Ag      11.93593000       3.44558000      13.36900200
Ag      16.41191500      11.19821400      13.36900200
Ag       5.96792000       3.44558000      13.36900200
Ag      10.44390600      11.19821400      13.36900200
Ag      14.91989100       3.44558000      13.36900200
Ag      19.39587600      11.19821400      13.36900200
Ag       8.95197000       3.44558000      13.36900200
Ag      13.42795500      11.19821400      13.36900200
Ag      17.90394000       3.44558000      13.36900200
Ag      22.37992500      11.19821400      13.36900200
Ag       4.47598500       6.02984300      13.36900200
Ag       8.95197000      13.78247700      13.36900200
Ag      13.42795500       6.02984300      13.36900200
Ag      17.90394000      13.78247700      13.36900200
Ag       7.45994500       6.02984300      13.36900200
Ag      11.93593000      13.78247700      13.36900200
Ag      16.41191500       6.02984300      13.36900200
Ag      20.88790000      13.78247700      13.36900200
Ag      10.44399500       6.02984300      13.36900200
Ag      14.91998000      13.78247700      13.36900200
Ag      19.39596500       6.02984300      13.36900200
Ag      23.87195000      13.78247700      13.36900200
Ag       8.97488700       1.73255900      15.79259600
Ag      13.45087200       9.48519200      15.79259600
Ag      17.92685700       1.73255900      15.79259600
Ag      22.40284300       9.48519200      15.79259600
Ag       2.98154300       1.72030900      15.78779400
Ag       7.45752800       9.47294300      15.78779400
Ag      11.93351300       1.72030900      15.78779400
Ag      16.40949800       9.47294300      15.78779400
Ag       5.97817100       1.71697600      15.74990000
Ag      10.45415600       9.46960900      15.74990000
Ag      14.93014100       1.71697600      15.74990000
Ag      19.40612600       9.46960900      15.74990000
Ag      10.44484600       4.27798100      15.80834200
Ag      14.92083100      12.03061400      15.80834200
Ag      19.39681600       4.27798100      15.80834200
Ag      23.87280100      12.03061400      15.80834200
Ag       4.47697000       4.31697600      15.74990000
Ag       8.95295500      12.06961000      15.74990000
Ag      13.42894000       4.31697600      15.74990000
Ag      17.90492500      12.06961000      15.74990000
Ag       7.45985600       4.30565800      15.76297600
Ag      11.93584100      12.05829100      15.76297600
Ag      16.41182600       4.30565800      15.76297600
Ag      20.88781100      12.05829100      15.76297600
Ag      11.92299500       6.88271100      15.74269500
Ag      16.39898000      14.63534400      15.74269500
Ag      20.87496500       6.88271100      15.74269500
Ag      25.35095000      14.63534400      15.74269500
Ag       5.98810700       6.90364300      15.79072900
Ag      10.46409200      14.65627600      15.79072900
Ag      14.94007700       6.90364300      15.79072900
Ag      19.41606200      14.65627600      15.79072900
Ag       8.92829200       6.90395300      15.80887600
Ag      13.40427700      14.65658600      15.80887600
Ag      17.88026200       6.90395300      15.80887600
Ag      22.35624700      14.65658600      15.80887600
Ag      13.35884600       7.70983900      18.13693600
Ag       8.88286100      -0.04279400      18.13693600
Ag      17.83483100      15.46247300      18.13693600
Ag       4.40687600       7.70983900      18.13693600
Ag      22.31081600       7.70983900      18.13693600
Ag      -0.06910900      -0.04279400      18.13693600
Ag       8.88286100      15.46247300      18.13693600
Ag      17.83483100      -0.04279400      18.13693600
Ag      26.78680100      15.46247300      18.13693600
Ag       2.98839200       0.00860500      18.36189600
Ag      11.94036200      15.51387200      18.36189600
Ag       7.46437700       7.76123900      18.36189600
Ag      11.94036200       0.00860500      18.36189600
Ag      20.89233200      15.51387200      18.36189600
Ag      16.41634700       7.76123900      18.36189600
Ag       5.95892300       0.00255800      18.19377600
Ag      14.91089400      15.50782500      18.19377600
Ag      10.43490800       7.75519200      18.19377600
Ag      14.91089400       0.00255800      18.19377600
Ag      23.86286400      15.50782500      18.19377600
Ag      19.38687900       7.75519200      18.19377600
Ag       1.51427000       2.57581200      18.37310400
Ag      19.41821100       2.57581200      18.37310400
Ag       5.99025600      10.32844600      18.37310400
Ag      23.89419600      10.32844600      18.37310400
Ag      10.46624100       2.57581200      18.37310400
Ag      14.94222600      10.32844600      18.37310400
Ag       4.56380400       2.63201900      18.12412700
Ag       9.03978900      10.38465300      18.12412700
Ag      13.51577400       2.63201900      18.12412700
Ag      17.99175900      10.38465300      18.12412700
Ag       7.48698000       2.58240200      18.20151500
Ag      11.96296500      10.33503600      18.20151500
Ag      16.43895000       2.58240200      18.20151500
Ag      20.91493500      10.33503600      18.20151500
Ag       2.98284100       5.15495800      18.19431000
Ag      20.88678100       5.15495800      18.19431000
Ag       7.45882600      12.90759200      18.19431000
Ag      25.36276600      12.90759200      18.19431000
Ag      11.93481100       5.15495800      18.19431000
Ag      16.41079600      12.90759200      18.19431000
Ag       5.98322800       5.18511700      18.20151500
Ag      10.45921300      12.93775000      18.20151500
Ag      14.93519800       5.18511700      18.20151500
Ag      19.41118300      12.93775000      18.20151500
Ag       8.95626700       5.16433900      18.20685200
Ag      13.43225200      12.91697300      18.20685200
Ag      17.90823700       5.16433900      18.20685200
Ag      22.38422200      12.91697300      18.20685200
H       14.77737500       8.52929200      20.69102400
H       17.22359000       9.86600100      20.71957800
C       15.62015800       8.98367400      20.16264700
O       16.43944300       9.44666100      21.11852900
