174
Properties=species:S:1:pos:R:3 "Ag36 H1 C1 O1"=T pbc="F F F"
Ag       0.00000000       0.00000000      10.93259800
Ag       8.95197000      15.50526700      10.93259800
Ag      17.90394000       0.00000000      10.93259800
Ag      26.85591000      15.50526700      10.93259800
Ag       4.47598500       7.75263400      10.93259800
Ag      22.37992500       7.75263400      10.93259800
Ag       8.95197000       0.00000000      10.93259800
Ag      17.90394000      15.50526700      10.93259800
Ag      13.42795500       7.75263400      10.93259800
Ag       2.98396000       0.00000000      10.93259800
Ag      11.93593000      15.50526700      10.93259800
Ag       7.45994500       7.75263400      10.93259800
Ag      11.93593000       0.00000000      10.93259800
Ag      20.88790000      15.50526700      10.93259800
Ag      16.41191500       7.75263400      10.93259800
Ag       5.96801000       0.00000000      10.93259800
Ag      14.91998000      15.50526700      10.93259800
Ag      10.44399500       7.75263400      10.93259800
Ag      14.91998000       0.00000000      10.93259800
Ag      23.87195000      15.50526700      10.93259800
Ag      19.39596500       7.75263400      10.93259800
Ag      10.44395000       2.58418500      10.93259800
Ag      14.91993500      10.33681900      10.93259800
Ag       1.49198000       2.58418500      10.93259800
Ag      19.39592000       2.58418500      10.93259800
Ag       5.96796500      10.33681900      10.93259800
Ag      23.87190500      10.33681900      10.93259800
Ag       4.47594000       2.58418500      10.93259800
Ag       8.95192500      10.33681900      10.93259800
Ag      13.42791000       2.58418500      10.93259800
Ag      17.90389600      10.33681900      10.93259800
Ag       7.45999000       2.58418500      10.93259800
Ag      11.93597500      10.33681900      10.93259800
Ag      16.41196000       2.58418500      10.93259800
Ag      20.88794500      10.33681900      10.93259800
Ag      11.93597500       5.16844800      10.93259800
Ag      16.41196000      12.92108200      10.93259800
Ag       2.98400500       5.16844800      10.93259800
Ag      20.88794500       5.16844800      10.93259800
Ag       7.45999000      12.92108200      10.93259800
Ag      25.36393000      12.92108200      10.93259800
Ag       5.96796500       5.16844800      10.93259800
Ag      10.44395000      12.92108200      10.93259800
Ag      14.91993500       5.16844800      10.93259800
Ag      19.39592000      12.92108200      10.93259800
Ag       8.95201500       5.16844800      10.93259800
Ag      13.42800000      12.92108200      10.93259800
Ag      17.90398500       5.16844800      10.93259800
Ag      22.37997000      12.92108200      10.93259800
Ag       1.49198000       0.86139500      13.36900200
Ag       5.96796500       8.61402900      13.36900200
Ag      10.44395000       0.86139500      13.36900200
Ag      14.91993500       8.61402900      13.36900200
Ag       4.47594000       0.86139500      13.36900200
Ag       8.95192500       8.61402900      13.36900200
Ag      13.42791000       0.86139500      13.36900200
Ag      17.90389600       8.61402900      13.36900200
Ag       7.45999000       0.86139500      13.36900200
Ag      11.93597500       8.61402900      13.36900200
Ag      16.41196000       0.86139500      13.36900200
Ag      20.88794500       8.61402900      13.36900200
Ag       2.98396000       3.44558000      13.36900200
Ag       7.45994500      11.19821400      13.36900200
Ag      11.93593000       3.44558000      13.36900200
Ag      16.41191500      11.19821400      13.36900200
Ag       5.96792000       3.44558000      13.36900200
Ag      10.44390600      11.19821400      13.36900200
Ag      14.91989100       3.44558000      13.36900200
Ag      19.39587600      11.19821400      13.36900200
Ag       8.95197000       3.44558000      13.36900200
Ag      13.42795500      11.19821400      13.36900200
Ag      17.90394000       3.44558000      13.36900200
Ag      22.37992500      11.19821400      13.36900200
Ag       4.47598500       6.02984300      13.36900200
Ag       8.95197000      13.78247700      13.36900200
Ag      13.42795500       6.02984300      13.36900200
Ag      17.90394000      13.78247700      13.36900200
Ag       7.45994500       6.02984300      13.36900200
Ag      11.93593000      13.78247700      13.36900200
Ag      16.41191500       6.02984300      13.36900200
Ag      20.88790000      13.78247700      13.36900200
Ag      10.44399500       6.02984300      13.36900200
Ag      14.91998000      13.78247700      13.36900200
Ag      19.39596500       6.02984300      13.36900200
Ag      23.87195000      13.78247700      13.36900200
Ag       8.98191400       1.73775300      15.77018200
Ag      13.45789900       9.49038600      15.77018200
Ag      17.93388400       1.73775300      15.77018200
Ag      22.40986900       9.49038600      15.77018200
Ag       3.01166700       1.73868300      15.77551800
Ag       7.48765200       9.49131700      15.77551800
Ag      11.96363700       1.73868300      15.77551800
Ag      16.43962200       9.49131700      15.77551800
Ag       5.99222500       1.72751900      15.76004000
Ag      10.46821000       9.48015300      15.76004000
Ag      14.94419500       1.72751900      15.76004000
Ag      19.42018000       9.48015300      15.76004000
Ag      10.46015300       4.29333100      15.80247100
Ag      14.93613800      12.04596400      15.80247100
Ag      19.41212300       4.29333100      15.80247100
Ag      23.88810800      12.04596400      15.80247100
Ag       4.49236700       4.32550400      15.76004000
Ag       8.96835200      12.07813800      15.76004000
Ag      13.44433700       4.32550400      15.76004000
Ag      17.92032200      12.07813800      15.76004000
Ag       7.48071400       4.31883700      15.76511100
Ag      11.95669900      12.07147000      15.76511100
Ag      16.43268400       4.31883700      15.76511100
Ag      20.90866900      12.07147000      15.76511100
Ag      11.94340500       6.89542500      15.74322900
Ag      16.41939000      14.64805800      15.74322900
Ag      20.89537500       6.89542500      15.74322900
Ag      25.37136000      14.64805800      15.74322900
Ag       5.99594000       6.90945700      15.76991400
Ag      10.47192500      14.66209100      15.76991400
Ag      14.94791000       6.90945700      15.76991400
Ag      19.42389500      14.66209100      15.76991400
Ag       8.94856800       6.91178300      15.80193600
Ag      13.42455300      14.66441600      15.80193600
Ag      17.90053800       6.91178300      15.80193600
Ag      22.37652300      14.66441600      15.80193600
Ag      13.40781300       7.74069400      18.15481600
Ag       8.93182800      -0.01193900      18.15481600
Ag      17.88379800      15.49332800      18.15481600
Ag       4.45584300       7.74069400      18.15481600
Ag      22.35978300       7.74069400      18.15481600
Ag      -0.02014200      -0.01193900      18.15481600
Ag       8.93182800      15.49332800      18.15481600
Ag      17.88379800      -0.01193900      18.15481600
Ag      26.83576800      15.49332800      18.15481600
Ag       2.99264400       0.06310600      18.29651700
Ag      11.94461400      15.56837300      18.29651700
Ag       7.46862900       7.81574000      18.29651700
Ag      11.94461400       0.06310600      18.29651700
Ag      20.89658400      15.56837300      18.29651700
Ag      16.42059900       7.81574000      18.29651700
Ag       5.99759600       0.01279200      18.19190800
Ag      14.94956600      15.51805900      18.19190800
Ag      10.47358100       7.76542500      18.19190800
Ag      14.94956600       0.01279200      18.19190800
Ag      23.90153600      15.51805900      18.19190800
Ag      19.42555100       7.76542500      18.19190800
Ag       1.55155500       2.55883400      18.29731700
Ag      19.45549600       2.55883400      18.29731700
Ag       6.02754100      10.31146800      18.29731700
Ag      23.93148100      10.31146800      18.29731700
Ag      10.50352600       2.55883400      18.29731700
Ag      14.97951100      10.31146800      18.29731700
Ag       4.59195800       2.65085800      18.15161200
Ag       9.06794300      10.40349200      18.15161200
Ag      13.54392800       2.65085800      18.15161200
Ag      18.01991300      10.40349200      18.15161200
Ag       7.51965500       2.61279300      18.19991400
Ag      11.99564000      10.36542600      18.19991400
Ag      16.47162500       2.61279300      18.19991400
Ag      20.94761000      10.36542600      18.19991400
Ag       3.01010000       5.18744200      18.19164100
Ag      20.91404000       5.18744200      18.19164100
Ag       7.48608500      12.94007600      18.19164100
Ag      25.39002500      12.94007600      18.19164100
Ag      11.96207000       5.18744200      18.19164100
Ag      16.43805500      12.94007600      18.19164100
Ag       6.02266200       5.20550600      18.19991400
Ag      10.49864700      12.95813900      18.19991400
Ag      14.97463200       5.20550600      18.19991400
Ag      19.45061700      12.95813900      18.19991400
Ag       8.98795700       5.18883800      18.21565900
Ag      13.46394200      12.94147100      18.21565900
Ag      17.93992700       5.18883800      18.21565900
Ag      22.41591200      12.94147100      18.21565900
H       15.08210000       8.70915300      20.94640600
H       16.48200000      11.17893000      19.19459900
C       15.88392800       9.17570700      20.33023300
O       16.81708200       9.70970800      20.87462100
