174
"Ag36 H2 C1 O1"
Ag    0.000000    0.000000   10.932598
Ag    8.951970   15.505267   10.932598
Ag   17.903940    0.000000   10.932598
Ag   26.855910   15.505267   10.932598
Ag    4.475985    7.752634   10.932598
Ag   22.379925    7.752634   10.932598
Ag    8.951970    0.000000   10.932598
Ag   17.903940   15.505267   10.932598
Ag   13.427955    7.752634   10.932598
Ag    2.983960    0.000000   10.932598
Ag   11.935930   15.505267   10.932598
Ag    7.459945    7.752634   10.932598
Ag   11.935930    0.000000   10.932598
Ag   20.887900   15.505267   10.932598
Ag   16.411915    7.752634   10.932598
Ag    5.968010    0.000000   10.932598
Ag   14.919980   15.505267   10.932598
Ag   10.443995    7.752634   10.932598
Ag   14.919980    0.000000   10.932598
Ag   23.871950   15.505267   10.932598
Ag   19.395965    7.752634   10.932598
Ag   10.443950    2.584185   10.932598
Ag   14.919935   10.336819   10.932598
Ag    1.491980    2.584185   10.932598
Ag   19.395920    2.584185   10.932598
Ag    5.967965   10.336819   10.932598
Ag   23.871905   10.336819   10.932598
Ag    4.475940    2.584185   10.932598
Ag    8.951925   10.336819   10.932598
Ag   13.427910    2.584185   10.932598
Ag   17.903896   10.336819   10.932598
Ag    7.459990    2.584185   10.932598
Ag   11.935975   10.336819   10.932598
Ag   16.411960    2.584185   10.932598
Ag   20.887945   10.336819   10.932598
Ag   11.935975    5.168448   10.932598
Ag   16.411960   12.921082   10.932598
Ag    2.984005    5.168448   10.932598
Ag   20.887945    5.168448   10.932598
Ag    7.459990   12.921082   10.932598
Ag   25.363930   12.921082   10.932598
Ag    5.967965    5.168448   10.932598
Ag   10.443950   12.921082   10.932598
Ag   14.919935    5.168448   10.932598
Ag   19.395920   12.921082   10.932598
Ag    8.952015    5.168448   10.932598
Ag   13.428000   12.921082   10.932598
Ag   17.903985    5.168448   10.932598
Ag   22.379970   12.921082   10.932598
Ag    1.491980    0.861395   13.369002
Ag    5.967965    8.614029   13.369002
Ag   10.443950    0.861395   13.369002
Ag   14.919935    8.614029   13.369002
Ag    4.475940    0.861395   13.369002
Ag    8.951925    8.614029   13.369002
Ag   13.427910    0.861395   13.369002
Ag   17.903896    8.614029   13.369002
Ag    7.459990    0.861395   13.369002
Ag   11.935975    8.614029   13.369002
Ag   16.411960    0.861395   13.369002
Ag   20.887945    8.614029   13.369002
Ag    2.983960    3.445580   13.369002
Ag    7.459945   11.198214   13.369002
Ag   11.935930    3.445580   13.369002
Ag   16.411915   11.198214   13.369002
Ag    5.967920    3.445580   13.369002
Ag   10.443906   11.198214   13.369002
Ag   14.919891    3.445580   13.369002
Ag   19.395876   11.198214   13.369002
Ag    8.951970    3.445580   13.369002
Ag   13.427955   11.198214   13.369002
Ag   17.903940    3.445580   13.369002
Ag   22.379925   11.198214   13.369002
Ag    4.475985    6.029843   13.369002
Ag    8.951970   13.782477   13.369002
Ag   13.427955    6.029843   13.369002
Ag   17.903940   13.782477   13.369002
Ag    7.459945    6.029843   13.369002
Ag   11.935930   13.782477   13.369002
Ag   16.411915    6.029843   13.369002
Ag   20.887900   13.782477   13.369002
Ag   10.443995    6.029843   13.369002
Ag   14.919980   13.782477   13.369002
Ag   19.395965    6.029843   13.369002
Ag   23.871950   13.782477   13.369002
Ag    8.974887    1.732559   15.792596
Ag   13.450872    9.485192   15.792596
Ag   17.926857    1.732559   15.792596
Ag   22.402843    9.485192   15.792596
Ag    2.981543    1.720309   15.787794
Ag    7.457528    9.472943   15.787794
Ag   11.933513    1.720309   15.787794
Ag   16.409498    9.472943   15.787794
Ag    5.978171    1.716976   15.749900
Ag   10.454156    9.469609   15.749900
Ag   14.930141    1.716976   15.749900
Ag   19.406126    9.469609   15.749900
Ag   10.444846    4.277981   15.808342
Ag   14.920831   12.030614   15.808342
Ag   19.396816    4.277981   15.808342
Ag   23.872801   12.030614   15.808342
Ag    4.476970    4.316976   15.749900
Ag    8.952955   12.069610   15.749900
Ag   13.428940    4.316976   15.749900
Ag   17.904925   12.069610   15.749900
Ag    7.459856    4.305658   15.762976
Ag   11.935841   12.058291   15.762976
Ag   16.411826    4.305658   15.762976
Ag   20.887811   12.058291   15.762976
Ag   11.922995    6.882711   15.742695
Ag   16.398980   14.635344   15.742695
Ag   20.874965    6.882711   15.742695
Ag   25.350950   14.635344   15.742695
Ag    5.988107    6.903643   15.790729
Ag   10.464092   14.656276   15.790729
Ag   14.940077    6.903643   15.790729
Ag   19.416062   14.656276   15.790729
Ag    8.928292    6.903953   15.808876
Ag   13.404277   14.656586   15.808876
Ag   17.880262    6.903953   15.808876
Ag   22.356247   14.656586   15.808876
Ag   13.358846    7.709839   18.136936
Ag    8.882861   -0.042794   18.136936
Ag   17.834831   15.462473   18.136936
Ag    4.406876    7.709839   18.136936
Ag   22.310816    7.709839   18.136936
Ag   -0.069109   -0.042794   18.136936
Ag    8.882861   15.462473   18.136936
Ag   17.834831   -0.042794   18.136936
Ag   26.786801   15.462473   18.136936
Ag    2.988392    0.008605   18.361896
Ag   11.940362   15.513872   18.361896
Ag    7.464377    7.761239   18.361896
Ag   11.940362    0.008605   18.361896
Ag   20.892332   15.513872   18.361896
Ag   16.416347    7.761239   18.361896
Ag    5.958923    0.002558   18.193776
Ag   14.910894   15.507825   18.193776
Ag   10.434908    7.755192   18.193776
Ag   14.910894    0.002558   18.193776
Ag   23.862864   15.507825   18.193776
Ag   19.386879    7.755192   18.193776
Ag    1.514270    2.575812   18.373104
Ag   19.418211    2.575812   18.373104
Ag    5.990256   10.328446   18.373104
Ag   23.894196   10.328446   18.373104
Ag   10.466241    2.575812   18.373104
Ag   14.942226   10.328446   18.373104
Ag    4.563804    2.632019   18.124127
Ag    9.039789   10.384653   18.124127
Ag   13.515774    2.632019   18.124127
Ag   17.991759   10.384653   18.124127
Ag    7.486980    2.582402   18.201515
Ag   11.962965   10.335036   18.201515
Ag   16.438950    2.582402   18.201515
Ag   20.914935   10.335036   18.201515
Ag    2.982841    5.154958   18.194310
Ag   20.886781    5.154958   18.194310
Ag    7.458826   12.907592   18.194310
Ag   25.362766   12.907592   18.194310
Ag   11.934811    5.154958   18.194310
Ag   16.410796   12.907592   18.194310
Ag    5.983228    5.185117   18.201515
Ag   10.459213   12.937750   18.201515
Ag   14.935198    5.185117   18.201515
Ag   19.411183   12.937750   18.201515
Ag    8.956267    5.164339   18.206852
Ag   13.432252   12.916973   18.206852
Ag   17.908237    5.164339   18.206852
Ag   22.384222   12.916973   18.206852
 H   14.777375    8.529292   20.691024
 H   17.223590    9.866001   20.719578
 C   15.620158    8.983674   20.162647
 O   16.439443    9.446661   21.118529
