174
"Ag36 H2 C1 O1"
Ag    0.000000    0.000000   10.932598
Ag    8.951970   15.505267   10.932598
Ag   17.903940    0.000000   10.932598
Ag   26.855910   15.505267   10.932598
Ag    4.475985    7.752634   10.932598
Ag   22.379925    7.752634   10.932598
Ag    8.951970    0.000000   10.932598
Ag   17.903940   15.505267   10.932598
Ag   13.427955    7.752634   10.932598
Ag    2.983960    0.000000   10.932598
Ag   11.935930   15.505267   10.932598
Ag    7.459945    7.752634   10.932598
Ag   11.935930    0.000000   10.932598
Ag   20.887900   15.505267   10.932598
Ag   16.411915    7.752634   10.932598
Ag    5.968010    0.000000   10.932598
Ag   14.919980   15.505267   10.932598
Ag   10.443995    7.752634   10.932598
Ag   14.919980    0.000000   10.932598
Ag   23.871950   15.505267   10.932598
Ag   19.395965    7.752634   10.932598
Ag   10.443950    2.584185   10.932598
Ag   14.919935   10.336819   10.932598
Ag    1.491980    2.584185   10.932598
Ag   19.395920    2.584185   10.932598
Ag    5.967965   10.336819   10.932598
Ag   23.871905   10.336819   10.932598
Ag    4.475940    2.584185   10.932598
Ag    8.951925   10.336819   10.932598
Ag   13.427910    2.584185   10.932598
Ag   17.903896   10.336819   10.932598
Ag    7.459990    2.584185   10.932598
Ag   11.935975   10.336819   10.932598
Ag   16.411960    2.584185   10.932598
Ag   20.887945   10.336819   10.932598
Ag   11.935975    5.168448   10.932598
Ag   16.411960   12.921082   10.932598
Ag    2.984005    5.168448   10.932598
Ag   20.887945    5.168448   10.932598
Ag    7.459990   12.921082   10.932598
Ag   25.363930   12.921082   10.932598
Ag    5.967965    5.168448   10.932598
Ag   10.443950   12.921082   10.932598
Ag   14.919935    5.168448   10.932598
Ag   19.395920   12.921082   10.932598
Ag    8.952015    5.168448   10.932598
Ag   13.428000   12.921082   10.932598
Ag   17.903985    5.168448   10.932598
Ag   22.379970   12.921082   10.932598
Ag    1.491980    0.861395   13.369002
Ag    5.967965    8.614029   13.369002
Ag   10.443950    0.861395   13.369002
Ag   14.919935    8.614029   13.369002
Ag    4.475940    0.861395   13.369002
Ag    8.951925    8.614029   13.369002
Ag   13.427910    0.861395   13.369002
Ag   17.903896    8.614029   13.369002
Ag    7.459990    0.861395   13.369002
Ag   11.935975    8.614029   13.369002
Ag   16.411960    0.861395   13.369002
Ag   20.887945    8.614029   13.369002
Ag    2.983960    3.445580   13.369002
Ag    7.459945   11.198214   13.369002
Ag   11.935930    3.445580   13.369002
Ag   16.411915   11.198214   13.369002
Ag    5.967920    3.445580   13.369002
Ag   10.443906   11.198214   13.369002
Ag   14.919891    3.445580   13.369002
Ag   19.395876   11.198214   13.369002
Ag    8.951970    3.445580   13.369002
Ag   13.427955   11.198214   13.369002
Ag   17.903940    3.445580   13.369002
Ag   22.379925   11.198214   13.369002
Ag    4.475985    6.029843   13.369002
Ag    8.951970   13.782477   13.369002
Ag   13.427955    6.029843   13.369002
Ag   17.903940   13.782477   13.369002
Ag    7.459945    6.029843   13.369002
Ag   11.935930   13.782477   13.369002
Ag   16.411915    6.029843   13.369002
Ag   20.887900   13.782477   13.369002
Ag   10.443995    6.029843   13.369002
Ag   14.919980   13.782477   13.369002
Ag   19.395965    6.029843   13.369002
Ag   23.871950   13.782477   13.369002
Ag    8.965935    1.744653   15.796065
Ag   13.441920    9.497286   15.796065
Ag   17.917905    1.744653   15.796065
Ag   22.393890    9.497286   15.796065
Ag    2.966504    1.747599   15.807274
Ag    7.442489    9.500232   15.807274
Ag   11.918474    1.747599   15.807274
Ag   16.394459    9.500232   15.807274
Ag    5.948853    1.733644   15.768045
Ag   10.424838    9.486277   15.768045
Ag   14.900823    1.733644   15.768045
Ag   19.376808    9.486277   15.768045
Ag   10.443548    4.298215   15.812078
Ag   14.919533   12.050849   15.812078
Ag   19.395518    4.298215   15.812078
Ag   23.871503   12.050849   15.812078
Ag    4.479566    4.322559   15.744296
Ag    8.955551   12.075192   15.744296
Ag   13.431536    4.322559   15.744296
Ag   17.907521   12.075192   15.744296
Ag    7.452068    4.313410   15.777120
Ag   11.928053   12.066044   15.777120
Ag   16.404038    4.313410   15.777120
Ag   20.880023   12.066044   15.777120
Ag   11.923039    6.887595   15.768580
Ag   16.399024   14.640228   15.768580
Ag   20.875009    6.887595   15.768580
Ag   25.350994   14.640228   15.768580
Ag    5.958073    6.901084   15.776318
Ag   10.434058   14.653718   15.776318
Ag   14.910043    6.901084   15.776318
Ag   19.386028   14.653718   15.776318
Ag    8.948434    6.901317   15.764576
Ag   13.424419   14.653950   15.764576
Ag   17.900404    6.901317   15.764576
Ag   22.376389   14.653950   15.764576
Ag   13.394788    7.743408   18.184170
Ag    8.918803   -0.009226   18.184170
Ag   17.870773   15.496041   18.184170
Ag    4.442818    7.743408   18.184170
Ag   22.346758    7.743408   18.184170
Ag   -0.033167   -0.009226   18.184170
Ag    8.918803   15.496041   18.184170
Ag   17.870773   -0.009226   18.184170
Ag   26.822743   15.496041   18.184170
Ag    2.984318    0.016281   18.189507
Ag   11.936288   15.521548   18.189507
Ag    7.460303    7.768914   18.189507
Ag   11.936288    0.016281   18.189507
Ag   20.888259   15.521548   18.189507
Ag   16.412273    7.768914   18.189507
Ag    5.949748    0.014420   18.184970
Ag   14.901718   15.519687   18.184970
Ag   10.425733    7.767053   18.184970
Ag   14.901718    0.014420   18.184970
Ag   23.853688   15.519687   18.184970
Ag   19.377703    7.767053   18.184970
Ag   10.344673    2.550229   18.324537
Ag   14.820658   10.302862   18.324537
Ag    1.392703    2.550229   18.324537
Ag   19.296643    2.550229   18.324537
Ag    5.868688   10.302862   18.324537
Ag   23.772628   10.302862   18.324537
Ag    4.499215    2.665278   18.203650
Ag    8.975201   10.417911   18.203650
Ag   13.451186    2.665278   18.203650
Ag   17.927171   10.417911   18.203650
Ag    7.419572    2.599768   18.187372
Ag   11.895557   10.352402   18.187372
Ag   16.371542    2.599768   18.187372
Ag   20.847527   10.352402   18.187372
Ag    3.040939    5.174650   18.213790
Ag   20.944880    5.174650   18.213790
Ag    7.516924   12.927284   18.213790
Ag   25.420865   12.927284   18.213790
Ag   11.992909    5.174650   18.213790
Ag   16.468895   12.927284   18.213790
Ag    5.981170    5.202482   18.220995
Ag   10.457155   12.955116   18.220995
Ag   14.933140    5.202482   18.220995
Ag   19.409125   12.955116   18.220995
Ag    8.945659    5.198063   18.191908
Ag   13.421644   12.950697   18.191908
Ag   17.897629    5.198063   18.191908
Ag   22.373614   12.950697   18.191908
 H   14.698016   10.151376   21.342689
 H   17.033764   11.545920   19.681771
 C   15.300976   10.522960   20.492748
 O   16.332959   11.104872   20.853274
