175
"Pt36 O1 C1 H3"
Pt    0.000000    0.000000   10.336705
Pt    8.464070   14.660200   10.336705
Pt   16.928141    0.000000   10.336705
Pt   25.392211   14.660200   10.336705
Pt    4.232035    7.330100   10.336705
Pt   21.160176    7.330100   10.336705
Pt    8.464070    0.000000   10.336705
Pt   16.928141   14.660200   10.336705
Pt   12.696105    7.330100   10.336705
Pt    2.821329    0.000000   10.336705
Pt   11.285399   14.660200   10.336705
Pt    7.053364    7.330100   10.336705
Pt   11.285399    0.000000   10.336705
Pt   19.749469   14.660200   10.336705
Pt   15.517434    7.330100   10.336705
Pt    5.642742    0.000000   10.336705
Pt   14.106812   14.660200   10.336705
Pt    9.874777    7.330100   10.336705
Pt   14.106813    0.000000   10.336705
Pt   22.570883   14.660200   10.336705
Pt   18.338848    7.330100   10.336705
Pt    1.410664    2.443342   10.336705
Pt   18.338805    2.443342   10.336705
Pt    5.642700    9.773442   10.336705
Pt   22.570840    9.773442   10.336705
Pt    9.874735    2.443342   10.336705
Pt   14.106770    9.773442   10.336705
Pt    4.231993    2.443342   10.336705
Pt    8.464028    9.773442   10.336705
Pt   12.696063    2.443342   10.336705
Pt   16.928099    9.773442   10.336705
Pt    7.053406    2.443342   10.336705
Pt   11.285442    9.773442   10.336705
Pt   15.517477    2.443342   10.336705
Pt   19.749512    9.773442   10.336705
Pt    2.821371    4.886758   10.336705
Pt   19.749512    4.886758   10.336705
Pt    7.053406   12.216858   10.336705
Pt   23.981547   12.216858   10.336705
Pt   11.285441    4.886758   10.336705
Pt   15.517477   12.216858   10.336705
Pt    5.642700    4.886758   10.336705
Pt    9.874735   12.216858   10.336705
Pt   14.106770    4.886758   10.336705
Pt   18.338806   12.216858   10.336705
Pt    8.464113    4.886758   10.336705
Pt   12.696148   12.216858   10.336705
Pt   16.928184    4.886758   10.336705
Pt   21.160219   12.216858   10.336705
Pt    1.410664    0.814447   12.640482
Pt    5.642699    8.144547   12.640482
Pt    9.874734    0.814447   12.640482
Pt   14.106769    8.144547   12.640482
Pt    4.231993    0.814447   12.640482
Pt    8.464028    8.144547   12.640482
Pt   12.696063    0.814447   12.640482
Pt   16.928098    8.144547   12.640482
Pt    7.053406    0.814447   12.640482
Pt   11.285441    8.144547   12.640482
Pt   15.517477    0.814447   12.640482
Pt   19.749512    8.144547   12.640482
Pt    2.821329    3.257790   12.640482
Pt    7.053364   10.587890   12.640482
Pt   11.285399    3.257790   12.640482
Pt   15.517434   10.587890   12.640482
Pt    5.642657    3.257790   12.640482
Pt    9.874692   10.587890   12.640482
Pt   14.106728    3.257790   12.640482
Pt   18.338763   10.587890   12.640482
Pt    8.464070    3.257790   12.640482
Pt   12.696105   10.587890   12.640482
Pt   16.928141    3.257790   12.640482
Pt   21.160176   10.587890   12.640482
Pt    4.232035    5.701205   12.640482
Pt    8.464071   13.031305   12.640482
Pt   12.696105    5.701205   12.640482
Pt   16.928141   13.031305   12.640482
Pt    7.053364    5.701205   12.640482
Pt   11.285399   13.031305   12.640482
Pt   15.517434    5.701205   12.640482
Pt   19.749469   13.031305   12.640482
Pt    9.874777    5.701205   12.640482
Pt   14.106812   13.031305   12.640482
Pt   18.338848    5.701205   12.640482
Pt   22.570883   13.031305   12.640482
Pt   16.942868    1.629481   14.962672
Pt   21.174903    8.959582   14.962672
Pt    8.478797    1.629481   14.962672
Pt   12.710833    8.959582   14.962672
Pt    2.825772    1.616800   14.974146
Pt    7.057807    8.946900   14.974146
Pt   11.289842    1.616800   14.974146
Pt   15.521877    8.946900   14.974146
Pt    5.651502    1.621198   14.939988
Pt    9.883537    8.951298   14.939988
Pt   14.115573    1.621198   14.939988
Pt   18.347608    8.951298   14.939988
Pt   18.337916    4.047095   14.995228
Pt   22.569951   11.377194   14.995228
Pt    9.873846    4.047095   14.995228
Pt   14.105881   11.377194   14.995228
Pt    4.235082    4.075829   14.940523
Pt    8.467118   11.405929   14.940523
Pt   12.699152    4.075829   14.940523
Pt   16.931188   11.405929   14.940523
Pt    7.058781    4.069964   14.957601
Pt   11.290815   11.400064   14.957601
Pt   15.522851    4.069964   14.957601
Pt   19.754886   11.400064   14.957601
Pt   19.736689    6.502678   14.925845
Pt   23.968724   13.832778   14.925845
Pt   11.272617    6.502678   14.925845
Pt   15.504652   13.832778   14.925845
Pt    5.657766    6.517119   14.974413
Pt    9.889801   13.847219   14.974413
Pt   14.121835    6.517119   14.974413
Pt   18.353871   13.847219   14.974413
Pt    8.440921    6.520637   15.012040
Pt   12.672956   13.850737   15.012040
Pt   16.904991    6.520637   15.012040
Pt   21.137026   13.850737   15.012040
Pt   -0.029032   -0.029320   17.250704
Pt    8.435038   14.630880   17.250704
Pt   16.899109   -0.029320   17.250704
Pt   25.363179   14.630880   17.250704
Pt    4.203003    7.300780   17.250704
Pt   21.131144    7.300780   17.250704
Pt    8.435038   -0.029320   17.250704
Pt   16.899109   14.630880   17.250704
Pt   12.667074    7.300780   17.250704
Pt    2.854381   -0.016492   17.490874
Pt   11.318451   14.643707   17.490874
Pt    7.086416    7.313608   17.490874
Pt   11.318452   -0.016492   17.490874
Pt   19.782522   14.643707   17.490874
Pt   15.550487    7.313608   17.490874
Pt    5.673043   -0.006744   17.308344
Pt   14.137113   14.653456   17.308344
Pt    9.905078    7.323356   17.308344
Pt   14.137114   -0.006744   17.308344
Pt   22.601184   14.653456   17.308344
Pt   18.369149    7.323356   17.308344
Pt    1.425942    2.456023   17.408949
Pt   18.354083    2.456023   17.408949
Pt    5.657977    9.786123   17.408949
Pt   22.586118    9.786123   17.408949
Pt    9.890012    2.456023   17.408949
Pt   14.122047    9.786123   17.408949
Pt    4.284978    2.463427   17.258175
Pt    8.517013    9.793527   17.258175
Pt   12.749048    2.463427   17.258175
Pt   16.981084    9.793527   17.258175
Pt    7.068599    2.439311   17.302473
Pt   11.300634    9.769411   17.302473
Pt   15.532670    2.439311   17.302473
Pt   19.764705    9.769411   17.302473
Pt    2.839484    4.888664   17.314215
Pt   19.767625    4.888664   17.314215
Pt    7.071519   12.218763   17.314215
Pt   23.999660   12.218763   17.314215
Pt   11.303554    4.888664   17.314215
Pt   15.535589   12.218763   17.314215
Pt    5.652348    4.875030   17.307010
Pt    9.884384   12.205130   17.307010
Pt   14.116418    4.875030   17.307010
Pt   18.348454   12.205130   17.307010
Pt    8.480363    4.881333   17.328626
Pt   12.712399   12.211434   17.328626
Pt   16.944434    4.881333   17.328626
Pt   21.176469   12.211434   17.328626
 O   16.124647    8.213524   20.179726
 C   15.138921    7.861972   19.334056
 H   14.249348    7.464094   19.821870
 H   15.797933    8.233461   21.094245
 H   14.408598    9.224124   18.955119
