173
"Ir36 C1 H2"
Ir    0.000000    0.000000   10.077588
Ir    8.251940   14.292779   10.077588
Ir   16.503880    0.000000   10.077588
Ir   24.755819   14.292779   10.077588
Ir    4.125970    7.146389   10.077588
Ir   20.629849    7.146389   10.077588
Ir    8.251940    0.000000   10.077588
Ir   16.503880   14.292779   10.077588
Ir   12.377910    7.146389   10.077588
Ir    2.750619    0.000000   10.077588
Ir   11.002559   14.292779   10.077588
Ir    6.876589    7.146389   10.077588
Ir   11.002559    0.000000   10.077588
Ir   19.254499   14.292779   10.077588
Ir   15.128529    7.146389   10.077588
Ir    5.501321    0.000000   10.077588
Ir   13.753261   14.292779   10.077588
Ir    9.627291    7.146389   10.077588
Ir   13.753261    0.000000   10.077588
Ir   22.005201   14.292779   10.077588
Ir   17.879231    7.146389   10.077588
Ir    1.375310    2.382106   10.077588
Ir   17.879189    2.382106   10.077588
Ir    5.501280    9.528496   10.077588
Ir   22.005159    9.528496   10.077588
Ir    9.627249    2.382106   10.077588
Ir   13.753219    9.528496   10.077588
Ir    4.125929    2.382106   10.077588
Ir    8.251899    9.528496   10.077588
Ir   12.377869    2.382106   10.077588
Ir   16.503839    9.528496   10.077588
Ir    6.876630    2.382106   10.077588
Ir   11.002600    9.528496   10.077588
Ir   15.128571    2.382106   10.077588
Ir   19.254541    9.528496   10.077588
Ir    2.750660    4.764284   10.077588
Ir   19.254540    4.764284   10.077588
Ir    6.876631   11.910674   10.077588
Ir   23.380510   11.910674   10.077588
Ir   11.002600    4.764284   10.077588
Ir   15.128570   11.910674   10.077588
Ir    5.501280    4.764284   10.077588
Ir    9.627250   11.910674   10.077588
Ir   13.753220    4.764284   10.077588
Ir   17.879190   11.910674   10.077588
Ir    8.251981    4.764284   10.077588
Ir   12.377951   11.910674   10.077588
Ir   16.503922    4.764284   10.077588
Ir   20.629892   11.910674   10.077588
Ir    1.375310    0.794035   12.323723
Ir    5.501279    7.940425   12.323723
Ir    9.627249    0.794035   12.323723
Ir   13.753219    7.940425   12.323723
Ir    4.125929    0.794035   12.323723
Ir    8.251898    7.940425   12.323723
Ir   12.377868    0.794035   12.323723
Ir   16.503838    7.940425   12.323723
Ir    6.876630    0.794035   12.323723
Ir   11.002600    7.940425   12.323723
Ir   15.128570    0.794035   12.323723
Ir   19.254540    7.940425   12.323723
Ir    2.750619    3.176141   12.323723
Ir    6.876589   10.322531   12.323723
Ir   11.002559    3.176141   12.323723
Ir   15.128529   10.322531   12.323723
Ir    5.501238    3.176141   12.323723
Ir    9.627208   10.322531   12.323723
Ir   13.753178    3.176141   12.323723
Ir   17.879148   10.322531   12.323723
Ir    8.251940    3.176141   12.323723
Ir   12.377910   10.322531   12.323723
Ir   16.503880    3.176141   12.323723
Ir   20.629850   10.322531   12.323723
Ir    4.125970    5.558319   12.323723
Ir    8.251940   12.704709   12.323723
Ir   12.377909    5.558319   12.323723
Ir   16.503880   12.704709   12.323723
Ir    6.876589    5.558319   12.323723
Ir   11.002559   12.704709   12.323723
Ir   15.128529    5.558319   12.323723
Ir   19.254499   12.704709   12.323723
Ir    9.627291    5.558319   12.323723
Ir   13.753261   12.704709   12.323723
Ir   17.879231    5.558319   12.323723
Ir   22.005201   12.704709   12.323723
Ir   16.505117    1.576779   14.538103
Ir   20.631087    8.723168   14.538103
Ir    8.253179    1.576779   14.538103
Ir   12.379148    8.723168   14.538103
Ir    2.749381    1.576779   14.538103
Ir    6.875351    8.723168   14.538103
Ir   11.001321    1.576779   14.538103
Ir   15.127291    8.723168   14.538103
Ir    5.501279    1.584855   14.531163
Ir    9.627249    8.731245   14.531163
Ir   13.753219    1.584855   14.531163
Ir   17.879189    8.731245   14.531163
Ir   17.879148    3.947809   14.573327
Ir   22.005118   11.094198   14.573327
Ir    9.627208    3.947809   14.573327
Ir   13.753178   11.094198   14.573327
Ir    4.119121    3.974393   14.536768
Ir    8.245090   11.120782   14.536768
Ir   12.371060    3.974393   14.536768
Ir   16.497030   11.120782   14.536768
Ir    6.883479    3.974322   14.536768
Ir   11.009449   11.120711   14.536768
Ir   15.135419    3.974322   14.536768
Ir   19.261389   11.120711   14.536768
Ir   19.246164    6.345422   14.523158
Ir   23.372134   13.491812   14.523158
Ir   10.994225    6.345422   14.523158
Ir   15.120195   13.491812   14.523158
Ir    5.501238    6.360715   14.542105
Ir    9.627208   13.507105   14.542105
Ir   13.753178    6.360715   14.542105
Ir   17.879147   13.507105   14.542105
Ir    8.260274    6.345422   14.523158
Ir   12.386244   13.491812   14.523158
Ir   16.512214    6.345422   14.523158
Ir   20.638184   13.491812   14.523158
Ir   -0.017329    0.010434   16.849083
Ir    8.234610   14.303213   16.849083
Ir   16.486550    0.010434   16.849083
Ir   24.738490   14.303213   16.849083
Ir    4.108640    7.156823   16.849083
Ir   20.612520    7.156823   16.849083
Ir    8.234610    0.010434   16.849083
Ir   16.486550   14.303213   16.849083
Ir   12.360580    7.156823   16.849083
Ir    2.767948    0.010434   16.849083
Ir   11.019888   14.303213   16.849083
Ir    6.893918    7.156823   16.849083
Ir   11.019888    0.010434   16.849083
Ir   19.271828   14.303213   16.849083
Ir   15.145858    7.156823   16.849083
Ir    5.501279    0.006503   16.740473
Ir   13.753219   14.299282   16.740473
Ir    9.627249    7.152893   16.740473
Ir   13.753219    0.006503   16.740473
Ir   22.005158   14.299282   16.740473
Ir   17.879189    7.152893   16.740473
Ir    1.375310    2.440849   16.846949
Ir   17.879189    2.440849   16.846949
Ir    5.501280    9.587239   16.846949
Ir   22.005159    9.587239   16.846949
Ir    9.627250    2.440849   16.846949
Ir   13.753220    9.587239   16.846949
Ir    4.164135    2.410120   16.743142
Ir    8.290105    9.556509   16.743142
Ir   12.416075    2.410120   16.743142
Ir   16.542044    9.556509   16.743142
Ir    6.838465    2.410048   16.743142
Ir   10.964435    9.556438   16.743142
Ir   15.090405    2.410048   16.743142
Ir   19.216374    9.556438   16.743142
Ir    2.768484    4.803874   16.742074
Ir   19.272364    4.803874   16.742074
Ir    6.894454   11.950264   16.742074
Ir   23.398334   11.950264   16.742074
Ir   11.020425    4.803874   16.742074
Ir   15.146395   11.950264   16.742074
Ir    5.501238    4.730767   16.749013
Ir    9.627208   11.877156   16.749013
Ir   13.753178    4.730767   16.749013
Ir   17.879147   11.877156   16.749013
Ir    8.234074    4.803874   16.742074
Ir   12.360044   11.950264   16.742074
Ir   16.486014    4.803874   16.742074
Ir   20.611984   11.950264   16.742074
 C   13.753136    7.867531   18.157483
 H   13.753178    9.216269   18.500128
 H   13.753219    7.601829   19.214504
