173
Properties=species:S:1:pos:R:3 "Ir36 C1 H2"=T pbc="F F F"
Ir       0.00000000       0.00000000      10.07758800
Ir       8.25194000      14.29277900      10.07758800
Ir      16.50388000       0.00000000      10.07758800
Ir      24.75581900      14.29277900      10.07758800
Ir       4.12597000       7.14638900      10.07758800
Ir      20.62984900       7.14638900      10.07758800
Ir       8.25194000       0.00000000      10.07758800
Ir      16.50388000      14.29277900      10.07758800
Ir      12.37791000       7.14638900      10.07758800
Ir       2.75061900       0.00000000      10.07758800
Ir      11.00255900      14.29277900      10.07758800
Ir       6.87658900       7.14638900      10.07758800
Ir      11.00255900       0.00000000      10.07758800
Ir      19.25449900      14.29277900      10.07758800
Ir      15.12852900       7.14638900      10.07758800
Ir       5.50132100       0.00000000      10.07758800
Ir      13.75326100      14.29277900      10.07758800
Ir       9.62729100       7.14638900      10.07758800
Ir      13.75326100       0.00000000      10.07758800
Ir      22.00520100      14.29277900      10.07758800
Ir      17.87923100       7.14638900      10.07758800
Ir       1.37531000       2.38210600      10.07758800
Ir      17.87918900       2.38210600      10.07758800
Ir       5.50128000       9.52849600      10.07758800
Ir      22.00515900       9.52849600      10.07758800
Ir       9.62724900       2.38210600      10.07758800
Ir      13.75321900       9.52849600      10.07758800
Ir       4.12592900       2.38210600      10.07758800
Ir       8.25189900       9.52849600      10.07758800
Ir      12.37786900       2.38210600      10.07758800
Ir      16.50383900       9.52849600      10.07758800
Ir       6.87663000       2.38210600      10.07758800
Ir      11.00260000       9.52849600      10.07758800
Ir      15.12857100       2.38210600      10.07758800
Ir      19.25454100       9.52849600      10.07758800
Ir       2.75066000       4.76428400      10.07758800
Ir      19.25454000       4.76428400      10.07758800
Ir       6.87663100      11.91067400      10.07758800
Ir      23.38051000      11.91067400      10.07758800
Ir      11.00260000       4.76428400      10.07758800
Ir      15.12857000      11.91067400      10.07758800
Ir       5.50128000       4.76428400      10.07758800
Ir       9.62725000      11.91067400      10.07758800
Ir      13.75322000       4.76428400      10.07758800
Ir      17.87919000      11.91067400      10.07758800
Ir       8.25198100       4.76428400      10.07758800
Ir      12.37795100      11.91067400      10.07758800
Ir      16.50392200       4.76428400      10.07758800
Ir      20.62989200      11.91067400      10.07758800
Ir       1.37531000       0.79403500      12.32372300
Ir       5.50127900       7.94042500      12.32372300
Ir       9.62724900       0.79403500      12.32372300
Ir      13.75321900       7.94042500      12.32372300
Ir       4.12592900       0.79403500      12.32372300
Ir       8.25189800       7.94042500      12.32372300
Ir      12.37786800       0.79403500      12.32372300
Ir      16.50383800       7.94042500      12.32372300
Ir       6.87663000       0.79403500      12.32372300
Ir      11.00260000       7.94042500      12.32372300
Ir      15.12857000       0.79403500      12.32372300
Ir      19.25454000       7.94042500      12.32372300
Ir       2.75061900       3.17614100      12.32372300
Ir       6.87658900      10.32253100      12.32372300
Ir      11.00255900       3.17614100      12.32372300
Ir      15.12852900      10.32253100      12.32372300
Ir       5.50123800       3.17614100      12.32372300
Ir       9.62720800      10.32253100      12.32372300
Ir      13.75317800       3.17614100      12.32372300
Ir      17.87914800      10.32253100      12.32372300
Ir       8.25194000       3.17614100      12.32372300
Ir      12.37791000      10.32253100      12.32372300
Ir      16.50388000       3.17614100      12.32372300
Ir      20.62985000      10.32253100      12.32372300
Ir       4.12597000       5.55831900      12.32372300
Ir       8.25194000      12.70470900      12.32372300
Ir      12.37790900       5.55831900      12.32372300
Ir      16.50388000      12.70470900      12.32372300
Ir       6.87658900       5.55831900      12.32372300
Ir      11.00255900      12.70470900      12.32372300
Ir      15.12852900       5.55831900      12.32372300
Ir      19.25449900      12.70470900      12.32372300
Ir       9.62729100       5.55831900      12.32372300
Ir      13.75326100      12.70470900      12.32372300
Ir      17.87923100       5.55831900      12.32372300
Ir      22.00520100      12.70470900      12.32372300
Ir      16.51629900       1.59300200      14.54717600
Ir      20.64226900       8.73939100      14.54717600
Ir       8.26435800       1.59300200      14.54717600
Ir      12.39032800       8.73939100      14.54717600
Ir       2.73894300       1.58156700      14.55171200
Ir       6.86491300       8.72795700      14.55171200
Ir      10.99088200       1.58156700      14.55171200
Ir      15.11685200       8.72795700      14.55171200
Ir       5.49603900       1.58135300      14.53730100
Ir       9.62200900       8.72774200      14.53730100
Ir      13.74797900       1.58135300      14.53730100
Ir      17.87394900       8.72774200      14.53730100
Ir      17.87456800       3.96917600      14.53623400
Ir      22.00053800      11.11556600      14.53623400
Ir       9.62262900       3.96917600      14.53623400
Ir      13.74859900      11.11556600      14.53623400
Ir       4.11734700       3.96931900      14.53756900
Ir       8.24331600      11.11570800      14.53756900
Ir      12.36928700       3.96931900      14.53756900
Ir      16.49525600      11.11570800      14.53756900
Ir       6.87733100       3.97082000      14.53303200
Ir      11.00330100      11.11720900      14.53303200
Ir      15.12927100       3.97082000      14.53303200
Ir      19.25524100      11.11720900      14.53303200
Ir      19.25099100       6.35049600      14.53089800
Ir      23.37696100      13.49688500      14.53089800
Ir      10.99905100       6.35049600      14.53089800
Ir      15.12502000      13.49688500      14.53089800
Ir       5.51163600       6.36100100      14.54744300
Ir       9.63760600      13.50739100      14.54744300
Ir      13.76357500       6.36100100      14.54744300
Ir      17.88954500      13.50739100      14.54744300
Ir       8.24851500       6.34906700      14.53623400
Ir      12.37448500      13.49545600      14.53623400
Ir      16.50045500       6.34906700      14.53623400
Ir      20.62642500      13.49545600      14.53623400
Ir      -0.06630500      -0.03780500      16.72152600
Ir       8.18563500      14.25497400      16.72152600
Ir      16.43757500      -0.03780500      16.72152600
Ir      24.68951400      14.25497400      16.72152600
Ir       4.05966500       7.10858500      16.72152600
Ir      20.56354500       7.10858500      16.72152600
Ir       8.18563400      -0.03780500      16.72152600
Ir      16.43757400      14.25497400      16.72152600
Ir      12.31160400       7.10858500      16.72152600
Ir       2.73456900       0.00650300      16.87630300
Ir      10.98650900      14.29928200      16.87630300
Ir       6.86053900       7.15289300      16.87630300
Ir      10.98650900       0.00650300      16.87630300
Ir      19.23844900      14.29928200      16.87630300
Ir      15.11247900       7.15289300      16.87630300
Ir       5.48308300      -0.00657500      16.74500900
Ir      13.73502300      14.28620400      16.74500900
Ir       9.60905300       7.13981400      16.74500900
Ir      13.73502300      -0.00657500      16.74500900
Ir      21.98696300      14.28620400      16.74500900
Ir      17.86099300       7.13981400      16.74500900
Ir       1.37147200       2.36559800      16.87603600
Ir      17.87535200       2.36559800      16.87603600
Ir       5.49744200       9.51198700      16.87603600
Ir      22.00132200       9.51198700      16.87603600
Ir       9.62341200       2.36559800      16.87603600
Ir      13.74938200       9.51198700      16.87603600
Ir       4.17234600       2.40933400      16.73353500
Ir       8.29831500       9.55572300      16.73353500
Ir      12.42428500       2.40933400      16.73353500
Ir      16.55025500       9.55572300      16.73353500
Ir       6.86833700       2.38332100      16.74981300
Ir      10.99430700       9.52971100      16.74981300
Ir      15.12027700       2.38332100      16.74981300
Ir      19.24624700       9.52971100      16.74981300
Ir       2.73564200       4.75227800      16.74500900
Ir      19.23952100       4.75227800      16.74500900
Ir       6.86161100      11.89866700      16.74500900
Ir      23.36549100      11.89866700      16.74500900
Ir      10.98758200       4.75227800      16.74500900
Ir      15.11355200      11.89866700      16.74500900
Ir       5.49781300       4.75713700      16.74981300
Ir       9.62378300      11.90352600      16.74981300
Ir      13.74975300       4.75713700      16.74981300
Ir      17.87572300      11.90352600      16.74981300
Ir       8.24158400       4.75885200      16.74767800
Ir      12.36755400      11.90524200      16.74767800
Ir      16.49352400       4.75885200      16.74767800
Ir      20.61949400      11.90524200      16.74767800
C       14.38164600       8.30424700      18.45663000
H       15.15014900       8.75104000      19.08721400
H       13.59668000       7.84937900      19.06079400
